@<TRIPOS>MOLECULE
66V
   55    57     1     0     0
SMALL
bcc


@<TRIPOS>ATOM
      1 C1           0.0000     0.0000     0.0000 c3         1 66V       0.041000
      2 C2           1.5300     0.0000     0.0000 c3         1 66V       0.036000
      3 C3           2.0410     0.0000     1.4420 c3         1 66V       0.034000
      4 C4           1.5310     1.2480     2.1640 c3         1 66V       0.070000
      5 C5           0.0010     1.2480     2.1650 c3         1 66V      -0.103000
      6 C6          -0.5090     1.2490     0.7230 c3         1 66V      -0.077000
      7 C7          -0.5090     2.4970     2.8870 c3         1 66V       0.088000
      8 N8          -1.9790     1.2480     0.7230 n7         1 66V      -0.044000
      9 C9          -2.5060     1.8280    -0.5200 c3         1 66V      -0.132000
     10 C10         -4.0360     1.8100    -0.4820 c3         1 66V      -0.187000
     11 C11         -4.5840     2.4150    -1.7750 c3         1 66V      -0.095000
     12 C12         -6.1140     2.3970    -1.7380 c3         1 66V      -0.193000
     13 C13         -6.6630     3.0010    -3.0320 c3         1 66V      -0.163000
     14 C14         -8.1930     2.9840    -2.9950 c3         1 66V      -0.020000
     15 C15         -8.7410     3.5870    -4.2880 c3         1 66V      -0.168000
     16 C16        -10.2710     3.5700    -4.2510 c3         1 66V       0.076000
     17 N17        -10.7970     4.1480    -5.4900 n7         1 66V       0.057000
     18 N18        -11.4520     3.5330    -6.1640 n7         1 66V       0.600000
     19 N19        -12.1070     2.9020    -6.8260 n2         1 66V      -0.134000
     20 O20          1.9930    -1.2160    -0.6300 oh         1 66V      -0.322000
     21 O21          3.4700     0.0000     1.4410 oh         1 66V      -0.314000
     22 O22          2.0080     1.2480     3.5110 oh         1 66V      -0.297000
     23 O23         -0.9540     2.1490     4.1580 oh         1 66V      -0.305000
     24 H1          -0.3590    -0.8830     0.5140 h1         1 66V       0.065000
     25 H3           1.9420     0.8530    -0.5260 h1         1 66V       0.067000
     26 H4           1.6770    -0.8840     1.9510 h1         1 66V       0.067000
     27 H5           1.8890     2.1320     1.6500 h1         1 66V       0.049000
     28 H6          -0.3580     0.3610     2.6720 hc         1 66V       0.102000
     29 H7          -0.1440     2.1330     0.2130 h1         1 66V       0.083000
     30 H8          -1.3270     2.9310     2.3250 h1         1 66V       0.027000
     31 H9           0.2940     3.2200     2.9710 h1         1 66V       0.027000
     32 H10         -2.3130     0.3550     0.4190 hn         1 66V       0.051000
     33 H12         -2.0080     1.3760    -1.3690 h1         1 66V       0.065500
     34 H13         -2.3290     2.8960    -0.5240 h1         1 66V       0.065500
     35 H14         -4.4040     1.0200    -1.1250 hc         1 66V       0.089000
     36 H15         -4.3700     1.6340     0.5330 hc         1 66V       0.089000
     37 H16         -4.8360     3.4560    -1.6090 hc         1 66V       0.062500
     38 H17         -3.8340     2.3450    -2.5530 hc         1 66V       0.062500
     39 H18         -6.4850     3.4120    -1.6580 hc         1 66V       0.095500
     40 H19         -6.4470     1.8220    -0.8820 hc         1 66V       0.095500
     41 H20         -7.1790     2.2340    -3.5980 hc         1 66V       0.080000
     42 H21         -5.8450     3.3960    -3.6220 hc         1 66V       0.080000
     43 H22         -8.5540     2.0550    -3.4190 hc         1 66V       0.047000
     44 H23         -8.5300     3.0670    -1.9680 hc         1 66V       0.047000
     45 H24         -8.0200     3.4500    -5.0850 hc         1 66V       0.112000
     46 H25         -8.9230     4.6460    -4.1450 hc         1 66V       0.112000
     47 H26        -10.6540     3.3820    -5.2460 DU         1 66V      -0.148000
     48 H27        -10.6060     2.7870    -3.5810 h1         1 66V       0.187000
     49 H28        -12.3220     1.9600    -6.5650 hn         1 66V       0.209000
     50 H29          2.5760    -1.0010    -1.3390 ho         1 66V       0.200000
     51 H30          3.7840    -0.7860     1.8550 ho         1 66V       0.203000
     52 H31          2.7760     1.7920     3.5730 ho         1 66V       0.195000
     53 H32         -1.1900     2.9280     4.6330 ho         1 66V       0.186000
     54 O1          -0.4770     0.0000    -1.3460 oh         1 66V      -0.326000
     55 H2          -0.5330    -0.8870    -1.6600 ho         1 66V       0.204000
@<TRIPOS>BOND
     1     1     2 1   
     2     1     6 1   
     3     1    24 1   
     4     1    54 1   
     5     2     3 1   
     6     2    20 1   
     7     2    25 1   
     8     3     4 1   
     9     3    21 1   
    10     3    26 1   
    11     4     5 1   
    12     4    22 1   
    13     4    27 1   
    14     5     6 1   
    15     5     7 1   
    16     5    28 1   
    17     6     8 1   
    18     6    29 1   
    19     7    23 1   
    20     7    30 1   
    21     7    31 1   
    22     8     9 1   
    23     8    32 1   
    24     9    10 1   
    25     9    33 1   
    26     9    34 1   
    27    10    11 1   
    28    10    35 1   
    29    10    36 1   
    30    11    12 1   
    31    11    37 1   
    32    11    38 1   
    33    12    13 1   
    34    12    39 1   
    35    12    40 1   
    36    13    14 1   
    37    13    41 1   
    38    13    42 1   
    39    14    15 1   
    40    14    43 1   
    41    14    44 1   
    42    15    16 1   
    43    15    45 1   
    44    15    46 1   
    45    16    17 1   
    46    16    47 1   
    47    16    48 1   
    48    17    18 1   
    49    17    47 1   
    50    18    19 1   
    51    18    47 1   
    52    19    49 1   
    53    20    50 1   
    54    21    51 1   
    55    22    52 1   
    56    23    53 1   
    57    54    55 1   
@<TRIPOS>SUBSTRUCTURE
     1 66V         1 TEMP              0 ****  ****    0 ROOT
