@<TRIPOS>MOLECULE
66X
   62    65     1     0     0
SMALL
bcc


@<TRIPOS>ATOM
      1 C14          0.0000     0.0000     0.0000 c3         1 66X       0.112800
      2 C5          -3.3230    -1.5720     2.9910 ca         1 66X       0.512200
      3 C6          -2.1570    -0.8430     2.8630 ca         1 66X      -0.439600
      4 C11          1.9440     0.0000     1.4920 c3         1 66X      -0.045400
      5 C7          -1.6020    -0.6930     1.5900 ca         1 66X       0.566200
      6 C10          0.6820    -0.5650     2.1930 c3         1 66X       0.151800
      7 C12          1.5410     0.0000     0.0000 c3         1 66X       0.023700
      8 C3          -3.3230    -1.9540     0.7180 ca         1 66X       0.743900
      9 C1          -5.1670    -3.2980    -0.2220 c3         1 66X       0.203100
     10 N4          -3.8750    -2.1070     1.9110 nb         1 66X      -0.720000
     11 N8          -2.2110    -1.2530     0.5500 nb         1 66X      -0.742000
     12 N9          -0.4340     0.0300     1.4140 nh         1 66X      -0.473300
     13 N15          2.0490     1.2040    -0.6640 ns         1 66X      -0.201900
     14 C16          3.2740     1.1970    -1.2230 c          1 66X       0.567100
     15 O17          3.9590     0.1920    -1.1780 o          1 66X      -0.699100
     16 N18          3.7420     2.3030    -1.8350 ns         1 66X      -0.053100
     17 C19          5.0520     2.3290    -2.3280 ca         1 66X      -0.077400
     18 C20          5.6130     1.1830    -2.8740 ca         1 66X      -0.072000
     19 C21          6.9050     1.2120    -3.3600 ca         1 66X      -0.090000
     20 C22          7.6400     2.3830    -3.3040 ca         1 66X      -0.044300
     21 C23          9.0510     2.4110    -3.8350 c3         1 66X       0.178100
     22 N24          9.0740     3.1150    -5.1240 n3         1 66X      -0.529600
     23 C25         10.4460     3.4870    -5.4960 c3         1 66X       0.108800
     24 C26         10.4180     4.2680    -6.8130 c3         1 66X       0.213900
     25 O27          9.7810     3.4750    -7.8180 os         1 66X      -0.412600
     26 C28          8.4420     3.0960    -7.4880 c3         1 66X       0.213900
     27 C29          8.4500     2.3030    -6.1790 c3         1 66X       0.108800
     28 C30          7.0840     3.5260    -2.7610 ca         1 66X      -0.171300
     29 C31          5.7900     3.5050    -2.2780 ca         1 66X      -0.087000
     30 C32          7.8880     4.7990    -2.7020 c3         1 66X       0.648200
     31 F33          9.0930     4.5590    -2.0310 f          1 66X      -0.208300
     32 F34          8.1590     5.2420    -4.0010 f          1 66X      -0.208300
     33 F35          7.1610     5.7790    -2.0170 f          1 66X      -0.208300
     34 H1          -0.3680     0.8780    -0.5170 h1         1 66X       0.042700
     35 H2          -0.3680    -0.8990    -0.4790 h1         1 66X       0.042700
     36 H3          -3.7810    -1.7050     3.9640 h4         1 66X      -0.019900
     37 H4          -1.6850    -0.3970     3.7290 ha         1 66X       0.133000
     38 H5           2.7950    -0.6490     1.6580 hc         1 66X       0.035200
     39 H6           2.1500     1.0080     1.8320 hc         1 66X       0.035200
     40 H7           0.6610    -1.6460     2.1240 h1         1 66X       0.023700
     41 H8           0.6420    -0.2390     3.2250 h1         1 66X       0.023700
     42 H9           1.9150    -0.8920    -0.4880 h1         1 66X       0.064700
     43 H10         -3.5250    -2.4180    -1.2940 hn         1 66X       0.296800
     44 H11         -5.4920    -3.6680    -1.1870 h1         1 66X       0.009367
     45 H12         -4.9880    -4.1330     0.4430 h1         1 66X       0.009367
     46 H13         -5.9360    -2.6600     0.1970 h1         1 66X       0.009367
     47 H14          1.4700     2.0170    -0.7370 hn         1 66X       0.174500
     48 H15          3.1490     3.1010    -1.9460 hn         1 66X       0.164500
     49 H16          5.0380     0.2660    -2.9190 ha         1 66X       0.152000
     50 H17          7.3440     0.3180    -3.7860 ha         1 66X       0.113000
     51 H18          9.6920     2.9270    -3.1300 h1         1 66X       0.028700
     52 H19          9.4060     1.3970    -3.9710 h1         1 66X       0.028700
     53 H21         10.8750     4.1060    -4.7180 h1         1 66X       0.018700
     54 H22         11.0410     2.5900    -5.6210 h1         1 66X       0.018700
     55 H23          9.8640     5.1890    -6.6740 h1         1 66X       0.013950
     56 H24         11.4320     4.4930    -7.1200 h1         1 66X       0.013950
     57 H25          7.8340     3.9840    -7.3680 h1         1 66X       0.013950
     58 H26          8.0370     2.4780    -8.2800 h1         1 66X       0.013950
     59 H27          9.0170     1.3900    -6.3140 h1         1 66X       0.018700
     60 H28          7.4320     2.0650    -5.8960 h1         1 66X       0.018700
     61 H29          5.3550     4.4010    -1.8530 ha         1 66X       0.122000
     62 N2          -3.9300    -2.5290    -0.3850 nu         1 66X      -0.485900
@<TRIPOS>BOND
     1     1     7 1   
     2     1    12 1   
     3     1    34 1   
     4     1    35 1   
     5     2     3 ar  
     6     2    10 ar  
     7     2    36 1   
     8     3     5 ar  
     9     3    37 1   
    10     4     6 1   
    11     4     7 1   
    12     4    38 1   
    13     4    39 1   
    14     5    11 ar  
    15     5    12 1   
    16     6    12 1   
    17     6    40 1   
    18     6    41 1   
    19     7    13 1   
    20     7    42 1   
    21     8    10 ar  
    22     8    11 ar  
    23     8    62 1   
    24     9    44 1   
    25     9    45 1   
    26     9    46 1   
    27     9    62 1   
    28    13    14 1   
    29    13    47 1   
    30    14    15 2   
    31    14    16 1   
    32    16    17 1   
    33    16    48 1   
    34    17    18 ar  
    35    17    29 ar  
    36    18    19 ar  
    37    18    49 1   
    38    19    20 ar  
    39    19    50 1   
    40    20    21 1   
    41    20    28 ar  
    42    21    22 1   
    43    21    51 1   
    44    21    52 1   
    45    22    23 1   
    46    22    27 1   
    47    23    24 1   
    48    23    53 1   
    49    23    54 1   
    50    24    25 1   
    51    24    55 1   
    52    24    56 1   
    53    25    26 1   
    54    26    27 1   
    55    26    57 1   
    56    26    58 1   
    57    27    59 1   
    58    27    60 1   
    59    28    29 ar  
    60    28    30 1   
    61    29    61 1   
    62    30    31 1   
    63    30    32 1   
    64    30    33 1   
    65    43    62 1   
@<TRIPOS>SUBSTRUCTURE
     1 66X         1 TEMP              0 ****  ****    0 ROOT
