@<TRIPOS>MOLECULE
molecule
   62    65     1     0     0
SMALL
bcc


@<TRIPOS>ATOM
      1 C14          0.0000     0.0000     0.0000 c3         1 66X       0.133800
      2 C5          -3.3230    -1.5720     2.9910 ca         1 66X       0.511200
      3 C6          -2.1570    -0.8430     2.8630 ca         1 66X      -0.453600
      4 C11          1.9440     0.0000     1.4920 c3         1 66X      -0.102400
      5 C7          -1.6020    -0.6930     1.5900 ca         1 66X       0.678200
      6 C10          0.6820    -0.5650     2.1930 c3         1 66X       0.155800
      7 C12          1.5410     0.0000     0.0000 c3         1 66X       0.119700
      8 C3          -3.3230    -1.9540     0.7180 ca         1 66X       0.962900
      9 C1          -5.1670    -3.2980    -0.2220 c3         1 66X       0.239100
     10 N4          -3.8750    -2.1070     1.9110 nb         1 66X      -0.815000
     11 N8          -2.2110    -1.2530     0.5500 nb         1 66X      -0.852000
     12 N9          -0.4340     0.0300     1.4140 nh         1 66X      -0.681300
     13 N15          2.0490     1.2040    -0.6640 ns         1 66X      -0.590900
     14 C16          3.2740     1.1970    -1.2230 c          1 66X       0.783100
     15 O17          3.9590     0.1920    -1.1780 o          1 66X      -0.652100
     16 N18          3.7420     2.3030    -1.8350 ns         1 66X      -0.493100
     17 C19          5.0520     2.3290    -2.3280 ca         1 66X       0.069600
     18 C20          5.6130     1.1830    -2.8740 ca         1 66X      -0.101000
     19 C21          6.9050     1.2120    -3.3600 ca         1 66X      -0.118000
     20 C22          7.6400     2.3830    -3.3040 ca         1 66X      -0.051300
     21 C23          9.0510     2.4110    -3.8350 c3         1 66X       0.188100
     22 N24          9.0740     3.1150    -5.1240 n3         1 66X      -0.719600
     23 C25         10.4460     3.4870    -5.4960 c3         1 66X       0.124300
     24 C26         10.4180     4.2680    -6.8130 c3         1 66X       0.139900
     25 O27          9.7810     3.4750    -7.8180 os         1 66X      -0.426600
     26 C28          8.4420     3.0960    -7.4880 c3         1 66X       0.139900
     27 C29          8.4500     2.3030    -6.1790 c3         1 66X       0.124300
     28 C30          7.0840     3.5260    -2.7610 ca         1 66X      -0.142300
     29 C31          5.7900     3.5050    -2.2780 ca         1 66X      -0.124000
     30 C32          7.8880     4.7990    -2.7020 c3         1 66X       0.676200
     31 F33          9.0930     4.5590    -2.0310 f          1 66X      -0.221633
     32 F34          8.1590     5.2420    -4.0010 f          1 66X      -0.221633
     33 F35          7.1610     5.7790    -2.0170 f          1 66X      -0.221633
     34 H1          -0.3680     0.8780    -0.5170 h1         1 66X       0.074200
     35 H2          -0.3680    -0.8990    -0.4790 h1         1 66X       0.074200
     36 H3          -3.7810    -1.7050     3.9640 h4         1 66X       0.028100
     37 H4          -1.6850    -0.3970     3.7290 ha         1 66X       0.149000
     38 H5           2.7950    -0.6490     1.6580 hc         1 66X       0.068200
     39 H6           2.1500     1.0080     1.8320 hc         1 66X       0.068200
     40 H7           0.6610    -1.6460     2.1240 h1         1 66X       0.056200
     41 H8           0.6420    -0.2390     3.2250 h1         1 66X       0.056200
     42 H9           1.9150    -0.8920    -0.4880 h1         1 66X       0.090700
     43 H10         -3.5250    -2.4180    -1.2940 hn         1 66X       0.454800
     44 H11         -5.4920    -3.6680    -1.1870 h1         1 66X       0.041033
     45 H12         -4.9880    -4.1330     0.4430 h1         1 66X       0.041033
     46 H13         -5.9360    -2.6600     0.1970 h1         1 66X       0.041033
     47 H14          1.4700     2.0170    -0.7370 hn         1 66X       0.315500
     48 H15          3.1490     3.1010    -1.9460 hn         1 66X       0.321500
     49 H16          5.0380     0.2660    -2.9190 ha         1 66X       0.174000
     50 H17          7.3440     0.3180    -3.7860 ha         1 66X       0.142000
     51 H18          9.6920     2.9270    -3.1300 h1         1 66X       0.053700
     52 H19          9.4060     1.3970    -3.9710 h1         1 66X       0.053700
     53 H21         10.8750     4.1060    -4.7180 h1         1 66X       0.043450
     54 H22         11.0410     2.5900    -5.6210 h1         1 66X       0.043450
     55 H23          9.8640     5.1890    -6.6740 h1         1 66X       0.054200
     56 H24         11.4320     4.4930    -7.1200 h1         1 66X       0.054200
     57 H25          7.8340     3.9840    -7.3680 h1         1 66X       0.054200
     58 H26          8.0370     2.4780    -8.2800 h1         1 66X       0.054200
     59 H27          9.0170     1.3900    -6.3140 h1         1 66X       0.043450
     60 H28          7.4320     2.0650    -5.8960 h1         1 66X       0.043450
     61 H29          5.3550     4.4010    -1.8530 ha         1 66X       0.149000
     62 N2          -3.9300    -2.5290    -0.3850 nu         1 66X      -0.902900
@<TRIPOS>BOND
     1     9    62 1
     2    62     8 1
     3     8    10 ar
     4     8    11 ar
     5    10     2 ar
     6    11     5 ar
     7     2     3 ar
     8     5     3 ar
     9     5    12 1
    10     6    12 1
    11     6     4 1
    12    12     1 1
    13     4     7 1
    14     1     7 1
    15     7    13 1
    16    13    14 1
    17    15    14 2
    18    14    16 1
    19    16    17 1
    20    17    29 ar
    21    17    18 ar
    22    29    28 ar
    23    18    19 ar
    24    31    30 1
    25    28    30 1
    26    28    20 ar
    27    32    30 1
    28    30    33 1
    29    19    20 ar
    30    20    21 1
    31    21    22 1
    32    22    23 1
    33    22    27 1
    34    23    24 1
    35    27    26 1
    36    24    25 1
    37    26    25 1
    38     1    34 1
    39     1    35 1
    40     2    36 1
    41     3    37 1
    42     4    38 1
    43     4    39 1
    44     6    40 1
    45     6    41 1
    46     7    42 1
    47    62    43 1
    48     9    44 1
    49     9    45 1
    50     9    46 1
    51    13    47 1
    52    16    48 1
    53    18    49 1
    54    19    50 1
    55    21    51 1
    56    21    52 1
    57    23    53 1
    58    23    54 1
    59    24    55 1
    60    24    56 1
    61    26    57 1
    62    26    58 1
    63    27    59 1
    64    27    60 1
    65    29    61 1
@<TRIPOS>SUBSTRUCTURE
     1 66X         1 TEMP              0 ****  ****    0 ROOT
