@<TRIPOS>MOLECULE
66Y
   15    16     1     0     0
SMALL
bcc


@<TRIPOS>ATOM
      1 C1           0.0000     0.0000     0.0000 c3         1 66Y      -0.046400
      2 N1           0.8340     2.1940     0.1870 ns         1 66Y      -0.215900
      3 O1           2.7130     1.8860    -1.1050 o          1 66Y      -0.625500
      4 C2           1.5750     0.0000     0.0000 c3         1 66Y      -0.130500
      5 C3           1.8360     0.0000     1.5130 c2         1 66Y      -0.114200
      6 C4           0.8960     0.7370     2.0760 c2         1 66Y      -0.162200
      7 C5          -0.0250     1.2470     0.9590 c3         1 66Y       0.018900
      8 C6           1.8190     1.4650    -0.4020 c          1 66Y       0.633500
      9 H3          -0.4170     0.2170    -0.9760 hc         1 66Y       0.034700
     10 H4          -0.4170    -0.8880     0.4600 hc         1 66Y       0.034700
     11 H7           0.4190     2.9620    -0.3020 hn         1 66Y       0.181500
     12 H1           2.0640    -0.7650    -0.5900 hc         1 66Y       0.068700
     13 H5           2.1830    -0.9020     2.0030 ha         1 66Y       0.131000
     14 H6           1.1400     1.3800     2.9130 ha         1 66Y       0.135000
     15 H2          -1.0030     1.6060     1.2580 h1         1 66Y       0.058700
@<TRIPOS>BOND
     1     1     4 1   
     2     1     7 1   
     3     1     9 1   
     4     1    10 1   
     5     2     7 1   
     6     2     8 1   
     7     2    11 1   
     8     3     8 2   
     9     4     5 1   
    10     4     8 1   
    11     4    12 1   
    12     5     6 2   
    13     5    13 1   
    14     6     7 1   
    15     6    14 1   
    16     7    15 1   
@<TRIPOS>SUBSTRUCTURE
     1 66Y         1 TEMP              0 ****  ****    0 ROOT
