@<TRIPOS>MOLECULE
66Z
   15    16     1     0     0
SMALL
bcc


@<TRIPOS>ATOM
      1 C1           0.0000     0.0000     0.0000 c3         1 66Z      -0.046400
      2 N1           1.8390     0.0000     1.4700 ns         1 66Z      -0.214900
      3 O1           0.7770    -1.0160     3.2400 o          1 66Z      -0.626500
      4 C2          -0.0250    -1.2740     0.9250 c3         1 66Z      -0.131500
      5 C3           0.8940    -2.2020     0.1150 c2         1 66Z      -0.114200
      6 C4           1.8360    -1.4510    -0.4250 c2         1 66Z      -0.162200
      7 C5           1.5750     0.0000     0.0000 c3         1 66Z       0.018900
      8 C6           0.8870    -0.7720     2.0570 c          1 66Z       0.633500
      9 H3          -0.4170    -0.1900    -0.9820 hc         1 66Z       0.034700
     10 H4          -0.4170     0.8750     0.4840 hc         1 66Z       0.034700
     11 H1          -0.9990    -1.6570     1.2040 hc         1 66Z       0.068700
     12 H5           0.4720    -3.0270    -0.4460 ha         1 66Z       0.131000
     13 H6           2.8510    -1.8220    -0.4920 ha         1 66Z       0.135000
     14 H2           2.0560     0.7750    -0.5840 h1         1 66Z       0.058700
     15 H7           2.1550     0.8350     1.9210 hn         1 66Z       0.181500
@<TRIPOS>BOND
     1     1     4 1   
     2     1     7 1   
     3     1     9 1   
     4     1    10 1   
     5     2     7 1   
     6     2     8 1   
     7     2    15 1   
     8     3     8 2   
     9     4     5 1   
    10     4     8 1   
    11     4    11 1   
    12     5     6 2   
    13     5    12 1   
    14     6     7 1   
    15     6    13 1   
    16     7    14 1   
@<TRIPOS>SUBSTRUCTURE
     1 66Z         1 TEMP              0 ****  ****    0 ROOT
