@<TRIPOS>MOLECULE
molecule
   56    59     1     0     0
SMALL
bcc


@<TRIPOS>ATOM
      1 CAJ          0.0000     0.0000     0.0000 ca         1 671      -0.107000
      2 CAH          1.3800     0.0000     0.0000 ca         1 671      -0.148000
      3 CAX          2.0730     0.0000     1.2050 ca         1 671       0.173600
      4 NAA          3.4700     0.0010     1.2090 nv         1 671      -0.993200
      5 CAI          1.3730     0.0010     2.4050 ca         1 671      -0.148000
      6 CAK         -0.0080     0.0010     2.3970 ca         1 671      -0.107000
      7 CAY         -0.6940     0.0060     1.1960 ca         1 671      -0.128300
      8 CAR         -2.2000     0.0070     1.1920 c3         1 671       0.181300
      9 NAU         -2.6890     1.3880     1.1960 ns         1 671      -0.599900
     10 CAV         -4.0130     1.6340     1.1930 c          1 671       0.783100
     11 OAB         -4.8040     0.7110     1.1870 o          1 671      -0.671100
     12 N           -4.4630     2.9050     1.1970 ns         1 671      -0.598900
     13 CA          -5.9030     3.1740     1.1940 c3         1 671       0.064000
     14 C           -6.1370     4.6620     1.1990 c          1 671       0.664100
     15 O           -5.1930     5.4240     1.2060 o          1 671      -0.601100
     16 NBD         -7.3950     5.1470     1.1980 n          1 671      -0.493800
     17 CAS         -8.6270     4.3370     1.1910 c3         1 671       0.089000
     18 CAO         -9.7100     5.2600     1.8050 c3         1 671      -0.097400
     19 CAQ         -9.3060     6.6420     1.2270 c3         1 671      -0.088400
     20 CBC         -7.7650     6.5690     1.2080 c3         1 671       0.162000
     21 CAZ         -7.2340     7.2390    -0.0330 ca         1 671      -0.079300
     22 CBB         -6.9940     8.6240    -0.0410 ca         1 671      -0.021000
     23 CAN         -7.2380     9.4130     1.0950 ca         1 671      -0.121000
     24 CAE         -6.9930    10.7510     1.0510 ca         1 671      -0.123000
     25 CAD         -6.5030    11.3530    -0.1070 ca         1 671      -0.128000
     26 CAL         -6.2540    10.6200    -1.2270 ca         1 671      -0.113000
     27 CBA         -6.4960     9.2360    -1.2180 ca         1 671      -0.033000
     28 CAM         -6.2510     8.4460    -2.3550 ca         1 671      -0.115000
     29 CAF         -6.4950     7.1080    -2.3100 ca         1 671      -0.123000
     30 CAG         -6.9800     6.5060    -1.1510 ca         1 671      -0.106000
     31 H1          -0.5410     0.0020    -0.9390 ha         1 671       0.135000
     32 H2           1.9230    -0.0050    -0.9380 ha         1 671       0.137500
     33 H3           3.9700     0.8680     1.2100 hn         1 671       0.428800
     34 H4           3.9710    -0.8660     1.2110 hn         1 671       0.428800
     35 H5           1.9100    -0.0010     3.3460 ha         1 671       0.137500
     36 H6          -0.5540     0.0040     3.3320 ha         1 671       0.135000
     37 H7          -2.5640    -0.5080     2.0730 h1         1 671       0.057200
     38 H8          -2.5580    -0.5010     0.3040 h1         1 671       0.057200
     39 H9          -2.0390     2.1490     1.2010 hn         1 671       0.314500
     40 H10         -3.8120     3.6660     1.2060 hn         1 671       0.334500
     41 H11         -6.3540     2.7350     2.0760 h1         1 671       0.069700
     42 H12         -6.3490     2.7410     0.3070 h1         1 671       0.069700
     43 H13         -8.8940     4.0670     0.1770 h1         1 671       0.050700
     44 H14         -8.4980     3.4520     1.8020 h1         1 671       0.050700
     45 H15        -10.6980     4.9740     1.4650 hc         1 671       0.058700
     46 H16         -9.6480     5.2620     2.8860 hc         1 671       0.058700
     47 H17         -9.6940     6.7640     0.2230 hc         1 671       0.062200
     48 H18         -9.6430     7.4410     1.8760 hc         1 671       0.062200
     49 H19         -7.3630     7.0470     2.0930 h1         1 671       0.073700
     50 H20         -7.6190     8.9590     2.0020 ha         1 671       0.130000
     51 H21         -7.1820    11.3580     1.9290 ha         1 671       0.127000
     52 H22         -6.3170    12.4200    -0.1150 ha         1 671       0.128000
     53 H23         -5.8730    11.1010    -2.1200 ha         1 671       0.132000
     54 H24         -5.8730     8.9010    -3.2630 ha         1 671       0.132000
     55 H25         -6.3020     6.5000    -3.1860 ha         1 671       0.128000
     56 H26         -7.1670     5.4390    -1.1420 ha         1 671       0.130000
@<TRIPOS>BOND
     1    25    24 ar  
     2    25    26 ar  
     3    24    23 ar  
     4    26    27 ar  
     5    23    22 ar  
     6    27    22 ar  
     7    27    28 ar  
     8    22    21 ar  
     9    28    29 ar  
    10    21    20 1   
    11    21    30 ar  
    12    20    19 1   
    13    20    16 1   
    14    19    18 1   
    15    11    10 2   
    16    29    30 ar  
    17    13    12 1   
    18    13    14 1   
    19    10    12 1   
    20    10     9 1   
    21    16    14 1   
    22    16    17 1   
    23     8     9 1   
    24     8     7 1   
    25    18    17 1   
    26    14    15 2   
    27     7     6 ar  
    28     7     1 ar  
    29     6     5 ar  
    30     1     2 ar  
    31     5     3 ar  
    32     2     3 ar  
    33     3     4 1   
    34     1    31 1   
    35     2    32 1   
    36     4    33 1   
    37     4    34 1   
    38     5    35 1   
    39     6    36 1   
    40     8    37 1   
    41     8    38 1   
    42     9    39 1   
    43    12    40 1   
    44    13    41 1   
    45    13    42 1   
    46    17    43 1   
    47    17    44 1   
    48    18    45 1   
    49    18    46 1   
    50    19    47 1   
    51    19    48 1   
    52    20    49 1   
    53    23    50 1   
    54    24    51 1   
    55    25    52 1   
    56    26    53 1   
    57    28    54 1   
    58    29    55 1   
    59    30    56 1   
@<TRIPOS>SUBSTRUCTURE
     1 671         1 TEMP              0 ****  ****    0 ROOT
