@<TRIPOS>MOLECULE
molecule
   50    51     1     0     0
SMALL
bcc


@<TRIPOS>ATOM
      1 CAA          0.0000     0.0000     0.0000 c2         1 673      -0.232000
      2 CAB          9.1390     4.1320    -3.8940 c3         1 673      -0.104600
      3 CAC         10.1600     3.4380    -1.7230 c3         1 673      -0.104600
      4 CAD          1.3100     0.0000     0.0000 c2         1 673      -0.157200
      5 CAE          2.3880    -7.0870     3.7850 ca         1 673      -0.131000
      6 CAF          3.6420    -6.9650     3.2130 ca         1 673      -0.125000
      7 CAG          1.5060    -6.0220     3.7620 ca         1 673      -0.125000
      8 CAH          4.0190    -5.7790     2.6160 ca         1 673      -0.123500
      9 CAI          1.8720    -4.8310     3.1690 ca         1 673      -0.123500
     10 CAJ          4.7960    -3.2980     1.3730 ca         1 673      -0.083000
     11 CAK          5.1640    -2.1100     0.7800 ca         1 673      -0.218000
     12 CAL          2.6470    -2.3500     1.9270 ca         1 673      -0.079000
     13 CAM          2.0640     0.0000     1.3050 c3         1 673       0.005100
     14 CAN          6.1850     1.5730    -1.0090 c3         1 673      -0.084400
     15 CAO          7.5850     1.6340    -1.6210 c3         1 673       0.158800
     16 CAP          5.9540     0.1880    -0.4010 c3         1 673       0.137400
     17 NAQ          7.8060     2.9640    -2.2050 n7         1 673      -0.813200
     18 OAR          4.6460     0.1300     0.1710 os         1 673      -0.327900
     19 CAS          3.1340    -4.7030     2.5910 cp         1 673      -0.024000
     20 CAT          3.5330    -3.4260     1.9510 cp         1 673      -0.073000
     21 CAU          3.0220    -1.1640     1.3310 ca         1 673      -0.105300
     22 CAV          4.2800    -1.0400     0.7570 ca         1 673       0.147100
     23 CAW          9.1440     3.0610    -2.8030 c3         1 673       0.159500
     24 HAA         -0.5420     0.0000    -0.9380 ha         1 673       0.110000
     25 HAAA        -0.5420     0.0000     0.9380 ha         1 673       0.110000
     26 HAB         10.1300     4.2180    -4.3220 hc         1 673       0.038367
     27 HABA         8.8470     5.0830    -3.4650 hc         1 673       0.038367
     28 HABB         8.4340     3.8550    -4.6690 hc         1 673       0.038367
     29 HAC         10.2910     2.6050    -1.0430 hc         1 673       0.038367
     30 HACA        11.1090     3.6780    -2.1870 hc         1 673       0.038367
     31 HACB         9.8000     4.3000    -1.1730 hc         1 673       0.038367
     32 HAD          1.8510     0.0000    -0.9380 ha         1 673       0.131000
     33 HAE          2.0960    -8.0200     4.2530 ha         1 673       0.128000
     34 HAF          4.3290    -7.8030     3.2340 ha         1 673       0.129000
     35 HAG          0.5260    -6.1230     4.2120 ha         1 673       0.129000
     36 HAH          5.0010    -5.6860     2.1680 ha         1 673       0.131500
     37 HAI          1.1800    -3.9980     3.1520 ha         1 673       0.131500
     38 HAJ          5.4860    -4.1320     1.3910 ha         1 673       0.134000
     39 HAK          6.1450    -2.0110     0.3310 ha         1 673       0.135000
     40 HAL          1.6660    -2.4450     2.3750 ha         1 673       0.140000
     41 HAM          1.3650    -0.0900     2.1270 hc         1 673       0.057200
     42 HAMA         2.6180     0.9260     1.4010 hc         1 673       0.057200
     43 HAN          5.4450     1.7570    -1.7790 hc         1 673       0.062700
     44 HANA         6.0950     2.3260    -0.2350 hc         1 673       0.062700
     45 HAO          8.3240     1.4510    -0.8510 h1         1 673       0.032200
     46 HAOA         7.6740     0.8810    -2.3940 h1         1 673       0.032200
     47 HAP          6.6930     0.0050     0.3700 h1         1 673       0.035200
     48 HAPA         6.0440    -0.5650    -1.1740 h1         1 673       0.035200
     49 HNAQ         7.7080     3.6620    -1.4940 hn         1 673       0.355800
     50 HAW          9.4160     2.1050    -3.2360 h1         1 673       0.056700
@<TRIPOS>BOND
     1     1     4 2   
     2     2    23 1   
     3     3    23 1   
     4     4    13 1   
     5     5     6 ar  
     6     5     7 ar  
     7     6     8 ar  
     8     7     9 ar  
     9     8    19 ar  
    10     9    19 ar  
    11    10    11 ar  
    12    10    20 ar  
    13    11    22 ar  
    14    12    20 ar  
    15    12    21 ar  
    16    13    21 1   
    17    14    15 1   
    18    14    16 1   
    19    15    17 1   
    20    16    18 1   
    21    17    23 1   
    22    18    22 1   
    23    19    20 1   
    24    21    22 ar  
    25     1    24 1   
    26     1    25 1   
    27     2    26 1   
    28     2    27 1   
    29     2    28 1   
    30     3    29 1   
    31     3    30 1   
    32     3    31 1   
    33     4    32 1   
    34     5    33 1   
    35     6    34 1   
    36     7    35 1   
    37     8    36 1   
    38     9    37 1   
    39    10    38 1   
    40    11    39 1   
    41    12    40 1   
    42    13    41 1   
    43    13    42 1   
    44    14    43 1   
    45    14    44 1   
    46    15    45 1   
    47    15    46 1   
    48    16    47 1   
    49    16    48 1   
    50    17    49 1   
    51    23    50 1   
@<TRIPOS>SUBSTRUCTURE
     1 673         1 TEMP              0 ****  ****    0 ROOT
