@<TRIPOS>MOLECULE
673
   50    51     1     0     0
SMALL
bcc


@<TRIPOS>ATOM
      1 CAA          0.0000     0.0000     0.0000 c2         1 673      -0.177000
      2 CAB          9.1390     4.1320    -3.8940 c3         1 673      -0.010100
      3 CAC         10.1600     3.4380    -1.7230 c3         1 673      -0.010100
      4 CAD          1.3100     0.0000     0.0000 c2         1 673      -0.141200
      5 CAE          2.3880    -7.0870     3.7850 ca         1 673      -0.106000
      6 CAF          3.6420    -6.9650     3.2130 ca         1 673      -0.096000
      7 CAG          1.5060    -6.0220     3.7620 ca         1 673      -0.096000
      8 CAH          4.0190    -5.7790     2.6160 ca         1 673      -0.105500
      9 CAI          1.8720    -4.8310     3.1690 ca         1 673      -0.105500
     10 CAJ          4.7960    -3.2980     1.3730 ca         1 673      -0.057000
     11 CAK          5.1640    -2.1100     0.7800 ca         1 673      -0.208000
     12 CAL          2.6470    -2.3500     1.9270 ca         1 673      -0.055000
     13 CAM          2.0640     0.0000     1.3050 c3         1 673       0.079100
     14 CAN          6.1850     1.5730    -1.0090 c3         1 673      -0.037400
     15 CAO          7.5850     1.6340    -1.6210 c3         1 673       0.146800
     16 CAP          5.9540     0.1880    -0.4010 c3         1 673       0.201400
     17 NAQ          7.8060     2.9640    -2.2050 n7         1 673      -0.584200
     18 OAR          4.6460     0.1300     0.1710 os         1 673      -0.302900
     19 CAS          3.1340    -4.7030     2.5910 cp         1 673      -0.018000
     20 CAT          3.5330    -3.4260     1.9510 cp         1 673      -0.072000
     21 CAU          3.0220    -1.1640     1.3310 ca         1 673      -0.121300
     22 CAV          4.2800    -1.0400     0.7570 ca         1 673       0.158100
     23 CAW          9.1440     3.0610    -2.8030 c3         1 673       0.113500
     24 HAA         -0.5420     0.0000     0.9380 ha         1 673       0.083500
     25 HAAA        -0.5420     0.0000    -0.9380 ha         1 673       0.083500
     26 HAB         10.1300     4.2170    -4.3230 hc         1 673       0.007200
     27 HABA         8.8490     5.0840    -3.4650 hc         1 673       0.007200
     28 HABB         8.4330     3.8560    -4.6690 hc         1 673       0.007200
     29 HAC          9.8000     4.3000    -1.1730 hc         1 673       0.007200
     30 HACA        10.2910     2.6050    -1.0430 hc         1 673       0.007200
     31 HACB        11.1090     3.6780    -2.1870 hc         1 673       0.007200
     32 HAD          1.8510     0.0000    -0.9380 ha         1 673       0.107000
     33 HAE          2.0960    -8.0200     4.2530 ha         1 673       0.101000
     34 HAF          4.3290    -7.8030     3.2340 ha         1 673       0.101000
     35 HAG          0.5260    -6.1230     4.2120 ha         1 673       0.101000
     36 HAH          5.0010    -5.6860     2.1680 ha         1 673       0.110500
     37 HAI          1.1800    -3.9980     3.1520 ha         1 673       0.110500
     38 HAJ          5.4860    -4.1320     1.3910 ha         1 673       0.110000
     39 HAK          6.1450    -2.0110     0.3310 ha         1 673       0.120000
     40 HAL          1.6660    -2.4450     2.3750 ha         1 673       0.117000
     41 HAM          2.6180     0.9260     1.4010 hc         1 673       0.024700
     42 HAMA         1.3650    -0.0900     2.1270 hc         1 673       0.024700
     43 HAN          6.0950     2.3260    -0.2350 hc         1 673       0.029700
     44 HANA         5.4450     1.7570    -1.7790 hc         1 673       0.029700
     45 HAO          7.6740     0.8810    -2.3940 h1         1 673       0.007200
     46 HAOA         8.3240     1.4500    -0.8510 h1         1 673       0.007200
     47 HAP          6.6930     0.0050     0.3700 h1         1 673       0.002200
     48 HAPA         6.0440    -0.5650    -1.1740 h1         1 673       0.002200
     49 HNAQ         7.7080     3.6620    -1.4940 hn         1 673       0.259800
     50 HAW          9.4160     2.1050    -3.2360 h1         1 673       0.031700
@<TRIPOS>BOND
     1     1     4 2   
     2     1    24 1   
     3     1    25 1   
     4     2    23 1   
     5     2    26 1   
     6     2    27 1   
     7     2    28 1   
     8     3    23 1   
     9     3    29 1   
    10     3    30 1   
    11     3    31 1   
    12     4    13 1   
    13     4    32 1   
    14     5     6 ar  
    15     5     7 ar  
    16     5    33 1   
    17     6     8 ar  
    18     6    34 1   
    19     7     9 ar  
    20     7    35 1   
    21     8    19 ar  
    22     8    36 1   
    23     9    19 ar  
    24     9    37 1   
    25    10    11 ar  
    26    10    20 ar  
    27    10    38 1   
    28    11    22 ar  
    29    11    39 1   
    30    12    20 ar  
    31    12    21 ar  
    32    12    40 1   
    33    13    21 1   
    34    13    41 1   
    35    13    42 1   
    36    14    15 1   
    37    14    16 1   
    38    14    43 1   
    39    14    44 1   
    40    15    17 1   
    41    15    45 1   
    42    15    46 1   
    43    16    18 1   
    44    16    47 1   
    45    16    48 1   
    46    17    23 1   
    47    17    49 1   
    48    18    22 1   
    49    19    20 1   
    50    21    22 ar  
    51    23    50 1   
@<TRIPOS>SUBSTRUCTURE
     1 673         1 TEMP              0 ****  ****    0 ROOT
