@<TRIPOS>MOLECULE
molecule
   38    40     1     0     0
SMALL
bcc


@<TRIPOS>ATOM
      1 N18          0.0000     0.0000     0.0000 n2         1 675      -0.728100
      2 C17          1.3020     0.0000     0.0000 ce         1 675       0.522800
      3 N19          1.9900     0.0000     1.1940 nz         1 675      -0.739600
      4 C12          2.0410    -0.0010    -1.2820 ca         1 675      -0.174900
      5 C11          3.4470    -0.0030    -1.2750 ca         1 675      -0.203000
      6 C10          4.1490    -0.0050    -2.4370 ca         1 675      -0.072000
      7 C2           3.4690    -0.0060    -3.6700 ca         1 675      -0.035000
      8 C1           4.1750    -0.0070    -4.8820 ca         1 675      -0.054000
      9 C6           3.4770    -0.0090    -6.0770 ca         1 675      -0.108600
     10 C5           2.0710    -0.0070    -6.0840 ca         1 675      -0.084000
     11 C4           1.3720    -0.0050    -4.9220 ca         1 675      -0.120000
     12 C3           2.0520    -0.0040    -3.6900 ca         1 675      -0.049000
     13 C13          1.3450    -0.0080    -2.4770 ca         1 675      -0.076000
     14 C23          4.2160    -0.0110    -7.3580 c          1 675       0.663700
     15 O36          5.4310    -0.0110    -7.3580 o          1 675      -0.574100
     16 N24          3.5420    -0.0120    -8.5240 ns         1 675      -0.466100
     17 C25          4.2360    -0.1310    -9.7330 ca         1 675       0.039600
     18 C30          5.3410    -0.9660    -9.8210 ca         1 675      -0.137000
     19 C29          6.0250    -1.0820   -11.0160 ca         1 675      -0.108000
     20 C28          5.6090    -0.3670   -12.1230 ca         1 675      -0.130000
     21 C27          4.5090     0.4660   -12.0390 ca         1 675      -0.108000
     22 C26          3.8180     0.5800   -10.8500 ca         1 675      -0.137000
     23 H18         -0.5030    -0.0000    -0.8650 hn         1 675       0.481400
     24 H191         1.3380     0.0010     1.9530 hn         1 675       0.473467
     25 H192         2.5640    -0.8180     1.2480 hn         1 675       0.473467
     26 H11          4.2810    -0.0010    -0.5830 ha         1 675       0.156000
     27 H10          5.2310    -0.0030    -2.4940 ha         1 675       0.161000
     28 H1           5.2590    -0.0080    -4.8830 ha         1 675       0.178000
     29 H5           1.5400    -0.0080    -7.0280 ha         1 675       0.146000
     30 H4           0.2880    -0.0040    -4.9430 ha         1 675       0.146000
     31 H13          0.3320    -0.0140    -2.8580 ha         1 675       0.173000
     32 H24          2.5450     0.0780    -8.5270 hn         1 675       0.322500
     33 H30          5.6670    -1.5270    -8.9530 ha         1 675       0.139500
     34 H29          6.8870    -1.7340   -11.0850 ha         1 675       0.139500
     35 H28          6.1490    -0.4570   -13.0590 ha         1 675       0.138000
     36 H27          4.1850     1.0230   -12.9090 ha         1 675       0.139500
     37 H26          2.9560     1.2330   -10.7850 ha         1 675       0.139500
     38 H193         2.5550     0.8240     1.2540 hn         1 675       0.473467
@<TRIPOS>BOND
     1     1     2 2
     2     1    23 1
     3     2     3 1
     4     2     4 1
     5     3    24 1
     6     3    25 1
     7     4     5 ar
     8     4    13 ar
     9     5     6 ar
    10     5    26 1
    11     6     7 ar
    12     6    27 1
    13     7     8 ar
    14     7    12 ar
    15     8     9 ar
    16     8    28 1
    17     9    10 ar
    18     9    14 1
    19    10    11 ar
    20    10    29 1
    21    11    12 ar
    22    11    30 1
    23    12    13 ar
    24    13    31 1
    25    14    15 2
    26    14    16 1
    27    16    17 1
    28    16    32 1
    29    17    18 ar
    30    17    22 ar
    31    18    19 ar
    32    18    33 1
    33    19    20 ar
    34    19    34 1
    35    20    21 ar
    36    20    35 1
    37    21    22 ar
    38    21    36 1
    39    22    37 1
    40    38     3 1
@<TRIPOS>SUBSTRUCTURE
     1 675         1 TEMP              0 ****  ****    0 ROOT
