@<TRIPOS>MOLECULE
675
   38    40     1     0     0
SMALL
bcc


@<TRIPOS>ATOM
      1 N18          0.0000     0.0000     0.0000 n2         1 675      -0.475100
      2 C17          1.3020     0.0000     0.0000 ce         1 675       0.237800
      3 N19          1.9900     0.0000     1.1940 nz         1 675       0.127400
      4 C12          2.0410    -0.0010    -1.2820 ca         1 675      -0.148900
      5 C11          3.4470    -0.0030    -1.2750 ca         1 675      -0.202000
      6 C10          4.1490    -0.0050    -2.4370 ca         1 675      -0.040000
      7 C2           3.4690    -0.0060    -3.6700 ca         1 675      -0.037000
      8 C1           4.1750    -0.0070    -4.8820 ca         1 675      -0.021000
      9 C6           3.4770    -0.0090    -6.0770 ca         1 675      -0.117600
     10 C5           2.0710    -0.0070    -6.0840 ca         1 675      -0.067000
     11 C4           1.3720    -0.0050    -4.9220 ca         1 675      -0.078000
     12 C3           2.0520    -0.0040    -3.6900 ca         1 675      -0.061000
     13 C13          1.3450    -0.0080    -2.4770 ca         1 675       0.022000
     14 C23          4.2160    -0.0110    -7.3580 c          1 675       0.566700
     15 O36          5.4310    -0.0110    -7.3580 o          1 675      -0.621100
     16 N24          3.5420    -0.0120    -8.5240 ns         1 675      -0.018100
     17 C25          4.2360    -0.1310    -9.7330 ca         1 675      -0.110400
     18 C30          5.3410    -0.9660    -9.8210 ca         1 675      -0.107000
     19 C29          6.0250    -1.0820   -11.0160 ca         1 675      -0.079500
     20 C28          5.6090    -0.3670   -12.1230 ca         1 675      -0.098000
     21 C27          4.5090     0.4660   -12.0390 ca         1 675      -0.079500
     22 C26          3.8180     0.5800   -10.8500 ca         1 675      -0.107000
     23 H18         -0.5010     0.0000     0.8660 hn         1 675       0.335400
     24 H191         1.3400     0.0000     1.9550 hn         1 675       0.225133
     25 H192         2.5650    -0.8180     1.2480 hn         1 675       0.225133
     26 H11          4.2830    -0.0010    -0.5860 ha         1 675       0.132000
     27 H10          5.2310    -0.0030    -2.4930 ha         1 675       0.126000
     28 H1           5.2590    -0.0080    -4.8830 ha         1 675       0.143000
     29 H5           1.5400    -0.0080    -7.0280 ha         1 675       0.116000
     30 H4           0.2880    -0.0040    -4.9430 ha         1 675       0.118000
     31 H13          0.2930    -0.0110    -2.7320 ha         1 675       0.140000
     32 H24          2.5450     0.0780    -8.5270 hn         1 675       0.168500
     33 H30          5.6670    -1.5270    -8.9530 ha         1 675       0.116000
     34 H29          6.8870    -1.7340   -11.0850 ha         1 675       0.108500
     35 H28          6.1490    -0.4570   -13.0590 ha         1 675       0.109000
     36 H27          4.1850     1.0230   -12.9090 ha         1 675       0.108500
     37 H26          2.9560     1.2330   -10.7850 ha         1 675       0.116000
     38 H193         2.5530     0.8250     1.2550 hn         1 675       0.225133
@<TRIPOS>BOND
     1     1     2 2   
     2     1    23 1   
     3     2     3 1   
     4     2     4 1   
     5     3    24 1   
     6     3    25 1   
     7     3    38 1   
     8     4     5 ar  
     9     4    13 ar  
    10     5     6 ar  
    11     5    26 1   
    12     6     7 ar  
    13     6    27 1   
    14     7     8 ar  
    15     7    12 ar  
    16     8     9 ar  
    17     8    28 1   
    18     9    10 ar  
    19     9    14 1   
    20    10    11 ar  
    21    10    29 1   
    22    11    12 ar  
    23    11    30 1   
    24    12    13 ar  
    25    13    31 1   
    26    14    15 2   
    27    14    16 1   
    28    16    17 1   
    29    16    32 1   
    30    17    18 ar  
    31    17    22 ar  
    32    18    19 ar  
    33    18    33 1   
    34    19    20 ar  
    35    19    34 1   
    36    20    21 ar  
    37    20    35 1   
    38    21    22 ar  
    39    21    36 1   
    40    22    37 1   
@<TRIPOS>SUBSTRUCTURE
     1 675         1 TEMP              0 ****  ****    0 ROOT
