@<TRIPOS>MOLECULE
molecule
   53    56     1     0     0
SMALL
bcc


@<TRIPOS>ATOM
      1 O21          0.0000     0.0000     0.0000 o          1 676      -0.657100
      2 C19          1.2130     0.0000     0.0000 c          1 676       0.656100
      3 N20          1.8860     0.0000     1.1680 ns         1 676      -0.592900
      4 C22          1.1530    -0.0020     2.4360 c3         1 676       0.149000
      5 C24          2.0160    -0.6030     3.5150 ca         1 676      -0.147300
      6 C29          1.4580    -1.4470     4.4560 ca         1 676      -0.113500
      7 C28          2.2500    -1.9980     5.4460 ca         1 676      -0.107500
      8 C27          3.6000    -1.7060     5.4940 ca         1 676      -0.089000
      9 C26          4.1590    -0.8620     4.5530 ca         1 676      -0.107500
     10 C25          3.3670    -0.3140     3.5600 ca         1 676      -0.113500
     11 C23          0.7880     1.4340     2.8160 c3         1 676       0.083800
     12 N30          0.0480     2.0600     1.7120 nz         1 676      -0.810600
     13 C11          1.9670    -0.0050    -1.3050 c3         1 676      -0.179400
     14 C6           0.9740    -0.0100    -2.4680 c3         1 676       0.062000
     15 N5           1.7020    -0.1350    -3.7340 na         1 676      -0.054100
     16 C1           2.0590    -1.2310    -4.4130 cc         1 676      -0.095300
     17 C7           0.1850     1.2980    -2.4710 c3         1 676       0.101000
     18 N8           0.9850     2.4370    -2.9060 ns         1 676      -0.613900
     19 C9           1.8890     2.3380    -3.9110 c          1 676       0.747100
     20 O10          2.4610     3.3140    -4.3580 o          1 676      -0.593500
     21 C4           2.1420     0.9850    -4.4290 cc         1 676      -0.209900
     22 C2           2.7750     0.5750    -5.5500 cd         1 676      -0.065000
     23 C3           2.7300    -0.8380    -5.5530 cd         1 676      -0.137000
     24 C12          3.3000    -1.7320    -6.5900 ca         1 676       0.060000
     25 C14          3.9600    -1.2100    -7.7050 ca         1 676      -0.280300
     26 C16          4.4760    -2.0800    -8.6480 ca         1 676       0.658500
     27 F18          5.1160    -1.5880    -9.7300 f          1 676      -0.211200
     28 N17          4.3500    -3.3880    -8.5030 nb         1 676      -0.724000
     29 C15          3.7320    -3.9190    -7.4640 ca         1 676       0.466200
     30 C13          3.1940    -3.1230    -6.4760 ca         1 676      -0.282300
     31 H20          2.8860    -0.0360     1.1690 hn         1 676       0.351500
     32 H111         2.5890     0.8800    -1.3650 hc         1 676       0.095700
     33 H112         2.5910    -0.8890    -1.3580 hc         1 676       0.095700
     34 H22          0.2480    -0.5880     2.3290 h1         1 676       0.104700
     35 H231         1.6930     1.9980     3.0090 hx         1 676       0.115700
     36 H232         0.1700     1.4260     3.7060 hx         1 676       0.115700
     37 H29          0.4000    -1.6760     4.4190 ha         1 676       0.129000
     38 H25          3.8040     0.3480     2.8220 ha         1 676       0.129000
     39 H28          1.8130    -2.6600     6.1840 ha         1 676       0.155000
     40 H27          4.2210    -2.1370     6.2710 ha         1 676       0.157000
     41 H26          5.2170    -0.6340     4.5890 ha         1 676       0.155000
     42 H301        -0.3310     2.9340     2.0180 hn         1 676       0.460133
     43 H302         0.6670     2.2160     0.9420 hn         1 676       0.460133
     44 H6           0.2900    -0.8440    -2.3620 h1         1 676       0.102700
     45 H71C        -0.6610     1.1930    -3.1390 h1         1 676       0.057200
     46 H72C        -0.1760     1.4900    -1.4680 h1         1 676       0.057200
     47 H1           1.8560    -2.2530    -4.1180 h4         1 676       0.177000
     48 H8           0.8630     3.3190    -2.4490 hn         1 676       0.319500
     49 H2           3.2300     1.2070    -6.3030 ha         1 676       0.181000
     50 H14          3.9060    -0.1500    -7.9190 ha         1 676       0.156000
     51 H13          2.6890    -3.5680    -5.6270 ha         1 676       0.133000
     52 H15          3.6530    -4.9970    -7.3840 h4         1 676       0.033100
     53 H303        -0.7010     1.4600     1.4300 hn         1 676       0.460133
@<TRIPOS>BOND
     1     1     2 2   
     2     2     3 1   
     3     2    13 1   
     4     3     4 1   
     5     4     5 1   
     6     4    11 1   
     7     5     6 ar  
     8     5    10 ar  
     9     6     7 ar  
    10     7     8 ar  
    11     8     9 ar  
    12     9    10 ar  
    13    11    12 1   
    14    13    14 1   
    15    14    15 1   
    16    14    17 1   
    17    15    16 1   
    18    15    21 1   
    19    16    23 2   
    20    17    18 1   
    21    18    19 1   
    22    19    20 2   
    23    19    21 1   
    24    21    22 2   
    25    22    23 1   
    26    23    24 1   
    27    24    25 ar  
    28    24    30 ar  
    29    25    26 ar  
    30    26    27 1   
    31    26    28 ar  
    32    28    29 ar  
    33    29    30 ar  
    34     3    31 1   
    35    13    32 1   
    36    13    33 1   
    37     4    34 1   
    38    11    35 1   
    39    11    36 1   
    40     6    37 1   
    41    10    38 1   
    42     7    39 1   
    43     8    40 1   
    44     9    41 1   
    45    12    42 1   
    46    12    43 1   
    47    14    44 1   
    48    17    45 1   
    49    17    46 1   
    50    16    47 1   
    51    18    48 1   
    52    22    49 1   
    53    25    50 1   
    54    30    51 1   
    55    29    52 1   
    56    53    12 1   
@<TRIPOS>SUBSTRUCTURE
     1 676         1 TEMP              0 ****  ****    0 ROOT
