@<TRIPOS>MOLECULE
676
   53    56     1     0     0
SMALL
bcc


@<TRIPOS>ATOM
      1 O21          0.0000     0.0000     0.0000 o          1 676      -0.690100
      2 C19          1.2130     0.0000     0.0000 c          1 676       0.584100
      3 N20          1.8860     0.0000     1.1680 ns         1 676      -0.219900
      4 C22          1.1530    -0.0020     2.4360 c3         1 676       0.085000
      5 C24          2.0160    -0.6030     3.5150 ca         1 676      -0.166300
      6 C29          1.4580    -1.4470     4.4560 ca         1 676      -0.084500
      7 C28          2.2500    -1.9980     5.4460 ca         1 676      -0.074500
      8 C27          3.6000    -1.7060     5.4940 ca         1 676      -0.055000
      9 C26          4.1590    -0.8620     4.5530 ca         1 676      -0.074500
     10 C25          3.3670    -0.3140     3.5600 ca         1 676      -0.084500
     11 C23          0.7880     1.4340     2.8160 c3         1 676      -0.061200
     12 N30          0.0480     2.0600     1.7120 nz         1 676       0.048400
     13 C11          1.9670    -0.0050    -1.3050 c3         1 676      -0.115400
     14 C6           0.9740    -0.0100    -2.4680 c3         1 676      -0.061000
     15 N5           1.7020    -0.1350    -3.7340 na         1 676       0.434900
     16 C1           2.0590    -1.2310    -4.4130 cc         1 676      -0.267300
     17 C7           0.1850     1.2980    -2.4710 c3         1 676       0.042000
     18 N8           0.9850     2.4370    -2.9060 ns         1 676      -0.244900
     19 C9           1.8890     2.3380    -3.9110 c          1 676       0.686100
     20 O10          2.4610     3.3140    -4.3580 o          1 676      -0.628500
     21 C4           2.1420     0.9850    -4.4290 cc         1 676      -0.398900
     22 C2           2.7750     0.5750    -5.5500 cd         1 676      -0.021000
     23 C3           2.7300    -0.8380    -5.5530 cd         1 676      -0.131000
     24 C12          3.3000    -1.7320    -6.5900 ca         1 676       0.066000
     25 C14          3.9600    -1.2100    -7.7050 ca         1 676      -0.246300
     26 C16          4.4760    -2.0800    -8.6480 ca         1 676       0.580500
     27 F18          5.1160    -1.5880    -9.7300 f          1 676      -0.218200
     28 N17          4.3500    -3.3880    -8.5030 nb         1 676      -0.593000
     29 C15          3.7320    -3.9190    -7.4640 ca         1 676       0.443200
     30 C13          3.1940    -3.1230    -6.4760 ca         1 676      -0.251300
     31 H20          2.8860    -0.0360     1.1690 hn         1 676       0.220500
     32 H111         2.5890     0.8800    -1.3650 hc         1 676       0.059200
     33 H112         2.5910    -0.8890    -1.3580 hc         1 676       0.059200
     34 H22          0.2480    -0.5880     2.3290 h1         1 676       0.076700
     35 H231         1.6930     1.9980     3.0090 hx         1 676       0.089200
     36 H232         0.1700     1.4260     3.7060 hx         1 676       0.089200
     37 H29          0.4000    -1.6760     4.4190 ha         1 676       0.104000
     38 H25          3.8040     0.3480     2.8220 ha         1 676       0.104000
     39 H28          1.8130    -2.6600     6.1840 ha         1 676       0.122000
     40 H27          4.2210    -2.1370     6.2710 ha         1 676       0.123000
     41 H26          5.2170    -0.6340     4.5890 ha         1 676       0.122000
     42 H301        -0.3310     2.9340     2.0180 hn         1 676       0.235133
     43 H302         0.6670     2.2160     0.9420 hn         1 676       0.235133
     44 H6           0.2900    -0.8440    -2.3620 h1         1 676       0.074700
     45 H71C        -0.6610     1.1930    -3.1390 h1         1 676       0.027700
     46 H72C        -0.1760     1.4900    -1.4680 h1         1 676       0.027700
     47 H1           1.8560    -2.2530    -4.1180 h4         1 676       0.153000
     48 H8           0.8630     3.3190    -2.4490 hn         1 676       0.178500
     49 H2           3.2300     1.2070    -6.3030 ha         1 676       0.149000
     50 H14          3.9060    -0.1500    -7.9190 ha         1 676       0.135000
     51 H13          2.6890    -3.5680    -5.6270 ha         1 676       0.113000
     52 H15          3.6530    -4.9970    -7.3840 h4         1 676      -0.014900
     53 H303        -0.7010     1.4600     1.4300 hn         1 676       0.235133
@<TRIPOS>BOND
     1     1     2 2   
     2     2     3 1   
     3     2    13 1   
     4     3     4 1   
     5     3    31 1   
     6     4     5 1   
     7     4    11 1   
     8     4    34 1   
     9     5     6 ar  
    10     5    10 ar  
    11     6     7 ar  
    12     6    37 1   
    13     7     8 ar  
    14     7    39 1   
    15     8     9 ar  
    16     8    40 1   
    17     9    10 ar  
    18     9    41 1   
    19    10    38 1   
    20    11    12 1   
    21    11    35 1   
    22    11    36 1   
    23    12    42 1   
    24    12    43 1   
    25    12    53 1   
    26    13    14 1   
    27    13    32 1   
    28    13    33 1   
    29    14    15 1   
    30    14    17 1   
    31    14    44 1   
    32    15    16 1   
    33    15    21 1   
    34    16    23 2   
    35    16    47 1   
    36    17    18 1   
    37    17    45 1   
    38    17    46 1   
    39    18    19 1   
    40    18    48 1   
    41    19    20 2   
    42    19    21 1   
    43    21    22 2   
    44    22    23 1   
    45    22    49 1   
    46    23    24 1   
    47    24    25 ar  
    48    24    30 ar  
    49    25    26 ar  
    50    25    50 1   
    51    26    27 1   
    52    26    28 ar  
    53    28    29 ar  
    54    29    30 ar  
    55    29    52 1   
    56    30    51 1   
@<TRIPOS>SUBSTRUCTURE
     1 676         1 TEMP              0 ****  ****    0 ROOT
