@<TRIPOS>MOLECULE
677
   44    47     1     0     0
SMALL
bcc


@<TRIPOS>ATOM
      1 F27          0.0000     0.0000     0.0000 f          1 677      -0.084900
      2 C6           1.3510     0.0000     0.0000 ca         1 677       0.154900
      3 C1           2.0430     0.0000     1.1970 ca         1 677      -0.126000
      4 C2           3.4280    -0.0000     1.1960 ca         1 677       0.132900
      5 F22          4.1040    -0.0010     2.3660 f          1 677      -0.108900
      6 C5           2.0450    -0.0060    -1.2010 ca         1 677       0.098900
      7 F21          1.3700    -0.0120    -2.3720 f          1 677      -0.089900
      8 C4           3.4280    -0.0060    -1.2000 ca         1 677      -0.101000
      9 C3           4.1200    -0.0010    -0.0030 ca         1 677      -0.218300
     10 C9           5.6260    -0.0030    -0.0020 c3         1 677       0.004600
     11 C10          6.1370    -1.2550    -0.7250 c3         1 677       0.012300
     12 C14          6.1390     1.2440    -0.7300 c3         1 677      -0.092500
     13 N23          5.4670     2.4350    -0.1950 nz         1 677       0.078400
     14 C13          7.6510     1.3720    -0.5210 c3         1 677      -0.010700
     15 N12          8.2870     0.0940    -0.8530 na         1 677       0.284700
     16 C11          7.6250    -1.1000    -0.9510 cc         1 677       0.163800
     17 N18          8.4600    -2.0500    -1.2610 nd         1 677      -0.424100
     18 C29          9.6040    -0.1490    -1.1180 ca         1 677      -0.212200
     19 C23         10.7270     0.6690    -1.1630 ca         1 677      -0.139000
     20 C22         11.9320     0.0620    -1.4750 ca         1 677       0.036000
     21 C19          9.7000    -1.5390    -1.3800 ca         1 677       0.022400
     22 C20         10.9310    -2.1240    -1.6920 ca         1 677       0.105000
     23 C21         12.0250    -1.2960    -1.7300 ca         1 677      -0.175500
     24 S24         13.6000    -1.9830    -2.1190 sy         1 677       0.874300
     25 O26         13.2990    -3.1350    -2.8950 o          1 677      -0.577300
     26 O25         14.3300    -0.8960    -2.6730 o          1 677      -0.577300
     27 C27         14.2940    -2.4610    -0.5130 c3         1 677       0.033700
     28 H1           1.5020    -0.0290     2.1350 ha         1 677       0.161000
     29 H4           3.9700    -0.0090    -2.1380 ha         1 677       0.137000
     30 H9           5.9930    -0.0000     1.0170 hc         1 677       0.070700
     31 H10          5.9510    -2.1290    -0.1130 hc         1 677       0.057200
     32 H10A         5.6330    -1.3560    -1.6790 hc         1 677       0.057200
     33 H14          5.9300     1.1520    -1.7890 hx         1 677       0.105700
     34 HN23         5.5060     2.4190     0.8050 hn         1 677       0.229467
     35 HN2A         4.5110     2.4410    -0.4910 hn         1 677       0.229467
     36 H13          8.0410     2.1490    -1.1670 h1         1 677       0.041200
     37 H13A         7.8530     1.6180     0.5150 h1         1 677       0.041200
     38 H23         10.6620     1.7320    -0.9640 ha         1 677       0.109000
     39 H22         12.8300     0.6670    -1.5190 ha         1 677       0.132000
     40 H20         11.0180    -3.1850    -1.8940 ha         1 677       0.146000
     41 H27         14.3730    -1.5860     0.1210 h1         1 677       0.062367
     42 H27A        13.6460    -3.1910    -0.0420 h1         1 677       0.062367
     43 H27B        15.2770    -2.8920    -0.6580 h1         1 677       0.062367
     44 H233         5.9250     3.2580    -0.5350 hn         1 677       0.229467
@<TRIPOS>BOND
     1     1     2 1   
     2     2     3 ar  
     3     2     6 ar  
     4     3     4 ar  
     5     3    28 1   
     6     4     5 1   
     7     4     9 ar  
     8     6     7 1   
     9     6     8 ar  
    10     8     9 ar  
    11     8    29 1   
    12     9    10 1   
    13    10    11 1   
    14    10    12 1   
    15    10    30 1   
    16    11    16 1   
    17    11    31 1   
    18    11    32 1   
    19    12    13 1   
    20    12    14 1   
    21    12    33 1   
    22    13    34 1   
    23    13    35 1   
    24    13    44 1   
    25    14    15 1   
    26    14    36 1   
    27    14    37 1   
    28    15    16 1   
    29    15    18 1   
    30    16    17 2   
    31    17    21 1   
    32    18    19 ar  
    33    18    21 ar  
    34    19    20 ar  
    35    19    38 1   
    36    20    23 ar  
    37    20    39 1   
    38    21    22 ar  
    39    22    23 ar  
    40    22    40 1   
    41    23    24 1   
    42    24    25 2   
    43    24    26 2   
    44    24    27 1   
    45    27    41 1   
    46    27    42 1   
    47    27    43 1   
@<TRIPOS>SUBSTRUCTURE
     1 677         1 TEMP              0 ****  ****    0 ROOT
