@<TRIPOS>MOLECULE
molecule
   38    40     1     0     0
SMALL
bcc


@<TRIPOS>ATOM
      1 C1           0.0000     0.0000     0.0000 ca         1 678      -0.005900
      2 C2           1.4010     0.0000     0.0000 ca         1 678      -0.099000
      3 C3           2.0980     0.0000     1.1740 ca         1 678      -0.142000
      4 C4           1.4210    -0.0010     2.3910 ca         1 678       0.017000
      5 C5           0.0110    -0.0010     2.4040 ca         1 678      -0.053000
      6 C6          -0.6970     0.0040     1.2040 ca         1 678      -0.247000
      7 C7          -0.7380     0.0000    -1.2800 ce         1 678      -0.126200
      8 N1          -2.0700    -0.0000    -1.2810 nz         1 678      -0.610600
      9 N2          -0.0720     0.0010    -2.4340 nv         1 678      -0.584100
     10 N3           1.8450    -0.0020     3.6990 na         1 678      -0.212600
     11 CN4         -0.3840    -0.0030     3.8140 cc         1 678      -0.155000
     12 C8           0.7580    -0.0030     4.5430 cc         1 678      -0.032100
     13 C1'          0.8250    -0.0050     6.0200 cd         1 678       0.041000
     14 C2'          1.7810    -0.7810     6.6770 cd         1 678      -0.161000
     15 C3'          1.8400    -0.7770     8.0560 cc         1 678       0.119800
     16 CV'          2.8720    -1.6160     8.7650 c3         1 678      -0.177200
     17 CW'          4.1280    -0.8070     8.9600 c          1 678       0.919600
     18 OX'          4.1810     0.3440     8.5610 o          1 678      -0.722800
     19 OY'          5.0930    -1.3030     9.5170 o          1 678      -0.722800
     20 C4'          0.9550    -0.0080     8.7900 cc         1 678      -0.075000
     21 C5'          0.0030     0.7640     8.1500 cd         1 678      -0.045300
     22 C6'         -0.0650     0.7780     6.7660 c          1 678       0.451100
     23 O6'         -0.9990     1.5360     6.1350 o          1 678      -0.472100
     24 Br5'        -1.2010     1.8120     9.1640 br         1 678      -0.000700
     25 HC2          2.1540     0.0020    -0.7790 ha         1 678       0.134000
     26 HC3          3.1770     0.0060     1.0790 ha         1 678       0.132000
     27 HC6         -1.7610    -0.0020     1.4070 ha         1 678       0.117000
     28 HH11        -2.4050     0.8170    -0.8110 hn         1 678       0.396467
     29 HH12        -2.4040    -0.8170    -0.8080 hn         1 678       0.396467
     30 HH21        -0.5710     0.0010    -3.3010 hn         1 678       0.268200
     31 HH22         0.9290     0.0020    -2.4330 hn         1 678       0.268200
     32 HN3          2.8010    -0.0020     3.9940 hn         1 678       0.309700
     33 HCN4        -1.3970    -0.0030     4.2000 ha         1 678       0.169000
     34 HC2'         2.4260    -1.4410     6.1090 ha         1 678       0.164000
     35 H31B         2.4870    -1.9240     9.7290 hc         1 678       0.084700
     36 H31A         3.0960    -2.4930     8.1690 hc         1 678       0.084700
     37 HC4'         1.0060    -0.0130     9.8720 ha         1 678       0.176000
     38 H13         -2.4040    -0.0020    -2.2250 hn         1 678       0.396467
@<TRIPOS>BOND
     1     1     2 ar  
     2     1     6 ar  
     3     1     7 1   
     4     2     3 ar  
     5     2    25 1   
     6     3     4 ar  
     7     3    26 1   
     8     4     5 ar  
     9     4    10 2   
    10     5     6 ar  
    11     5    11 2   
    12     6    27 1   
    13     7     8 1   
    14     7     9 2   
    15     8    28 1   
    16     8    29 1   
    17     9    30 1   
    18     9    31 1   
    19    10    12 1   
    20    10    32 1   
    21    11    12 1   
    22    11    33 1   
    23    12    13 2   
    24    13    14 1   
    25    13    22 1   
    26    14    15 2   
    27    14    34 1   
    28    15    16 1   
    29    15    20 1   
    30    16    17 1   
    31    16    35 1   
    32    16    36 1   
    33    17    18 1   
    34    17    19 1   
    35    20    21 2   
    36    20    37 1   
    37    21    22 1   
    38    21    24 1   
    39    22    23 2   
    40    38     8 1   
@<TRIPOS>SUBSTRUCTURE
     1 678         1 TEMP              0 ****  ****    0 ROOT
