@<TRIPOS>MOLECULE
678
   38    40     1     0     0
SMALL
bcc


@<TRIPOS>ATOM
      1 C1           0.0000     0.0000     0.0000 ca         1 678       0.041100
      2 C2           1.4010     0.0000     0.0000 ca         1 678      -0.086000
      3 C3           2.0980     0.0000     1.1740 ca         1 678      -0.105000
      4 C4           1.4210    -0.0010     2.3910 ca         1 678      -0.179000
      5 C5           0.0110    -0.0010     2.4040 ca         1 678      -0.052000
      6 C6          -0.6970     0.0040     1.2040 ca         1 678      -0.219000
      7 C7          -0.7380     0.0000    -1.2800 ce         1 678      -0.555200
      8 N1          -2.0700    -0.0000    -1.2810 nz         1 678       0.390400
      9 N2          -0.0720     0.0010    -2.4340 nv         1 678      -0.106100
     10 N3           1.8450    -0.0020     3.6990 na         1 678       0.337400
     11 CN4         -0.3840    -0.0030     3.8140 cc         1 678      -0.129000
     12 C8           0.7580    -0.0030     4.5430 cc         1 678      -0.232100
     13 C1'          0.8250    -0.0050     6.0200 cd         1 678       0.060800
     14 C2'          1.7810    -0.7810     6.6770 cd         1 678      -0.155000
     15 C3'          1.8400    -0.7770     8.0560 cc         1 678       0.149800
     16 CV'          2.8720    -1.6160     8.7650 c3         1 678      -0.105200
     17 CW'          4.1280    -0.8070     8.9600 c          1 678       1.005600
     18 OX'          4.1810     0.3440     8.5610 o          1 678      -0.767800
     19 OY'          5.0930    -1.3030     9.5170 o          1 678      -0.767800
     20 C4'          0.9550    -0.0080     8.7900 cc         1 678      -0.059000
     21 C5'          0.0030     0.7640     8.1500 cd         1 678      -0.028500
     22 C6'         -0.0650     0.7780     6.7660 c          1 678       0.516500
     23 O6'         -0.9990     1.5360     6.1350 o          1 678      -0.472100
     24 Br5'        -1.2010     1.8120     9.1640 br         1 678      -0.016700
     25 HC2          2.1550     0.0020    -0.7780 ha         1 678       0.112000
     26 HC3          3.1770     0.0060     1.0810 ha         1 678       0.105000
     27 HC6         -1.7600    -0.0020     1.4100 ha         1 678       0.104000
     28 HH11        -2.4040    -0.0020    -2.2250 hn         1 678       0.123467
     29 HH12        -2.4040    -0.8170    -0.8080 hn         1 678       0.123467
     30 HH21         0.9290     0.0020    -2.4330 hn         1 678       0.102200
     31 HH22        -0.5720     0.0010    -3.3010 hn         1 678       0.102200
     32 HN3          2.8010    -0.0020     3.9940 hn         1 678       0.125700
     33 HCN4        -1.3970    -0.0030     4.2000 ha         1 678       0.141000
     34 HC2'         2.4260    -1.4410     6.1090 ha         1 678       0.134000
     35 H31B         3.0960    -2.4930     8.1690 hc         1 678       0.048200
     36 H31A         2.4870    -1.9240     9.7290 hc         1 678       0.048200
     37 HC4'         1.0060    -0.0130     9.8720 ha         1 678       0.142000
     38 H13         -2.4050     0.8170    -0.8110 hn         1 678       0.123467
@<TRIPOS>BOND
     1     1     2 ar  
     2     1     6 ar  
     3     1     7 1   
     4     2     3 ar  
     5     2    25 1   
     6     3     4 ar  
     7     3    26 1   
     8     4     5 ar  
     9     4    10 2   
    10     5     6 ar  
    11     5    11 2   
    12     6    27 1   
    13     7     8 1   
    14     7     9 2   
    15     8    28 1   
    16     8    29 1   
    17     8    38 1   
    18     9    30 1   
    19     9    31 1   
    20    10    12 1   
    21    10    32 1   
    22    11    12 1   
    23    11    33 1   
    24    12    13 2   
    25    13    14 1   
    26    13    22 1   
    27    14    15 2   
    28    14    34 1   
    29    15    16 1   
    30    15    20 1   
    31    16    17 1   
    32    16    35 1   
    33    16    36 1   
    34    17    18 1   
    35    17    19 1   
    36    20    21 2   
    37    20    37 1   
    38    21    22 1   
    39    21    24 1   
    40    22    23 2   
@<TRIPOS>SUBSTRUCTURE
     1 678         1 TEMP              0 ****  ****    0 ROOT
