@<TRIPOS>MOLECULE
molecule
   34    36     1     0     0
SMALL
bcc


@<TRIPOS>ATOM
      1 C1           0.0000     0.0000     0.0000 ca         1 679      -0.105000
      2 C2           1.3790     0.0000     0.0000 ca         1 679      -0.129000
      3 C3           2.0740     0.0000     1.1960 ca         1 679      -0.121000
      4 C4           1.3920    -0.0030     2.4010 ca         1 679       0.026400
      5 C5           0.0120     0.0030     2.4140 ca         1 679      -0.089000
      6 C6          -0.6960    -0.0010     1.2120 ca         1 679      -0.010800
      7 Cl7          2.2740    -0.0020     3.8950 cl         1 679      -0.104400
      8 C8          -2.1740    -0.0010     1.2190 cc         1 679      -0.199400
      9 C9          -2.9910    -0.9540     1.7710 cd         1 679       0.135800
     10 C10         -4.3810    -0.5060     1.5140 c          1 679       0.677700
     11 C11         -3.0600     1.0210     0.6330 c          1 679       0.717700
     12 O12         -2.6960     2.0250     0.0530 o          1 679      -0.592500
     13 O13         -5.3880    -1.0920     1.8550 o          1 679      -0.546500
     14 N14         -4.3370     0.6590     0.8480 ns         1 679      -0.594500
     15 N15         -2.5980    -2.0990     2.4290 nu         1 679      -0.648400
     16 C16         -3.0090    -2.3240     3.7430 ca         1 679       0.125600
     17 C17         -3.6900    -1.3320     4.4390 ca         1 679      -0.183000
     18 C18         -4.0990    -1.5490     5.7390 ca         1 679      -0.122000
     19 C19         -3.8410    -2.7580     6.3580 ca         1 679       0.028400
     20 C20         -3.1540    -3.7600     5.6690 ca         1 679      -0.063600
     21 C21         -2.7410    -3.5390     4.3540 ca         1 679      -0.126000
     22 Cl2         -4.3590    -3.0250     7.9930 cl         1 679      -0.089400
     23 C23         -2.8730    -5.0510     6.3280 c          1 679       0.877200
     24 O24         -3.2340    -5.2410     7.4720 o          1 679      -0.821300
     25 O25         -2.2150    -6.0180     5.6590 o          1 679      -0.821300
     26 HC1         -0.5430    -0.0020    -0.9380 ha         1 679       0.137000
     27 HC2          1.9190     0.0010    -0.9390 ha         1 679       0.131000
     28 HC3          3.1580    -0.0020     1.1900 ha         1 679       0.138000
     29 HC5         -0.5210     0.0020     3.3570 ha         1 679       0.163000
     30 H14         -5.1380     1.1800     0.5510 hn         1 679       0.349500
     31 H15         -2.0600    -2.7930     1.9480 hn         1 679       0.463800
     32 H17         -3.8960    -0.3820     3.9600 ha         1 679       0.111000
     33 H18         -4.6310    -0.7710     6.2750 ha         1 679       0.124000
     34 H21         -2.2080    -4.3120     3.8150 ha         1 679       0.162000
@<TRIPOS>BOND
     1     1     2 ar  
     2     1     6 ar  
     3     1    26 1   
     4     2     3 ar  
     5     2    27 1   
     6     3     4 ar  
     7     3    28 1   
     8     4     5 ar  
     9     4     7 1   
    10     5     6 ar  
    11     5    29 1   
    12     6     8 1   
    13     8     9 2   
    14     8    11 1   
    15     9    10 1   
    16     9    15 1   
    17    10    13 2   
    18    10    14 1   
    19    11    12 2   
    20    11    14 1   
    21    14    30 1   
    22    15    16 1   
    23    15    31 1   
    24    16    17 ar  
    25    16    21 ar  
    26    17    18 ar  
    27    17    32 1   
    28    18    19 ar  
    29    18    33 1   
    30    19    20 ar  
    31    19    22 1   
    32    20    21 ar  
    33    20    23 1   
    34    21    34 1   
    35    23    24 1   
    36    23    25 1   
@<TRIPOS>SUBSTRUCTURE
     1 679         1 TEMP              0 ****  ****    0 ROOT
