@<TRIPOS>MOLECULE
67A
   42    45     1     0     0
SMALL
bcc


@<TRIPOS>ATOM
      1 N3           0.0000     0.0000     0.0000 nc         1 67A      -0.497400
      2 C7           2.0240     0.0000     1.2910 c          1 67A       0.492000
      3 C8           1.2310    -0.0010     2.4630 cc         1 67A      -0.255200
      4 C10         -6.4070     0.2950     2.9890 c3         1 67A       0.758700
      5 C13         -2.8480     0.1490     2.1390 ca         1 67A      -0.151000
      6 C15          0.6620    -1.5630    -2.5600 ca         1 67A      -0.135200
      7 C17         -4.2300     0.1540     2.0430 ca         1 67A       0.164100
      8 C22         -2.6920    -0.1510    -0.2420 ca         1 67A      -0.115000
      9 C24         -4.8400     0.0100     0.8050 ca         1 67A      -0.199000
     10 C26          0.3090    -2.4410    -1.5430 ca         1 67A      -0.092000
     11 C28         -1.1490    -2.3920    -3.8970 ca         1 67A      -0.094000
     12 C1           1.3160     0.0000     0.0000 cd         1 67A       0.348900
     13 C2           2.0680     0.0010    -1.2710 cd         1 67A      -0.268200
     14 N4           1.7560    -0.7050    -2.3990 na         1 67A       0.631300
     15 N5          -0.6810    -0.0010     1.0860 na         1 67A       0.350100
     16 N6           2.7280    -0.4160    -3.3650 nd         1 67A      -0.655800
     17 C9          -0.1180    -0.0010     2.3150 cd         1 67A      -0.130000
     18 C11          3.2130     0.7170    -1.5440 cc         1 67A      -0.276300
     19 C12         -2.0760    -0.0000     0.9950 ca         1 67A      -0.017400
     20 C14          3.5930     0.4240    -2.8540 cc         1 67A       0.391200
     21 O18          3.2450    -0.0000     1.3470 o          1 67A      -0.573100
     22 F19         -6.7770     1.3470     2.1450 f          1 67A      -0.194633
     23 F20         -6.8040    -0.9200     2.4210 f          1 67A      -0.194633
     24 F21         -7.0290     0.4560     4.2320 f          1 67A      -0.194633
     25 C23         -4.0700    -0.1390    -0.3330 ca         1 67A      -0.028000
     26 C25         -0.0700    -1.5430    -3.7400 ca         1 67A      -0.092000
     27 C27         -0.7670    -3.2900    -1.7070 ca         1 67A      -0.094000
     28 C29         -1.4940    -3.2670    -2.8830 ca         1 67A      -0.099000
     29 H1           1.6870    -0.0010     3.4460 ha         1 67A       0.145000
     30 H2          -2.3700     0.2640     3.1050 ha         1 67A       0.134000
     31 H3          -2.0910    -0.2670    -1.1350 ha         1 67A       0.144000
     32 H4          -5.9210     0.0160     0.7310 ha         1 67A       0.136000
     33 H5           0.8790    -2.4590    -0.6210 ha         1 67A       0.120000
     34 H6          -1.7210    -2.3770    -4.8170 ha         1 67A       0.107000
     35 H7          -0.7520    -0.0010     3.1940 h4         1 67A       0.149000
     36 H8           3.7290     1.3820    -0.8620 ha         1 67A       0.148000
     37 H9           4.4570     0.8300    -3.3660 h4         1 67A       0.005100
     38 H10         -4.5490    -0.2540    -1.2980 ha         1 67A       0.114000
     39 H11          0.2010    -0.8590    -4.5350 ha         1 67A       0.120000
     40 H12         -1.0420    -3.9760    -0.9150 ha         1 67A       0.107000
     41 H13         -2.3400    -3.9330    -3.0090 ha         1 67A       0.105000
     42 O16         -4.9890     0.3000     3.1620 os         1 67A      -0.315900
@<TRIPOS>BOND
     1     1    12 2   
     2     1    15 1   
     3     2     3 1   
     4     2    12 1   
     5     2    21 2   
     6     3    17 2   
     7     3    29 1   
     8     4    22 1   
     9     4    23 1   
    10     4    24 1   
    11     4    42 1   
    12     5     7 ar  
    13     5    19 ar  
    14     5    30 1   
    15     6    10 ar  
    16     6    14 1   
    17     6    26 ar  
    18     7     9 ar  
    19     7    42 1   
    20     8    19 ar  
    21     8    25 ar  
    22     8    31 1   
    23     9    25 ar  
    24     9    32 1   
    25    10    27 ar  
    26    10    33 1   
    27    11    26 ar  
    28    11    28 ar  
    29    11    34 1   
    30    12    13 1   
    31    13    14 1   
    32    13    18 2   
    33    14    16 1   
    34    15    17 1   
    35    15    19 1   
    36    16    20 2   
    37    17    35 1   
    38    18    20 1   
    39    18    36 1   
    40    20    37 1   
    41    25    38 1   
    42    26    39 1   
    43    27    28 ar  
    44    27    40 1   
    45    28    41 1   
@<TRIPOS>SUBSTRUCTURE
     1 67A         1 TEMP              0 ****  ****    0 ROOT
