@<TRIPOS>MOLECULE
67B
   39    41     1     0     0
SMALL
bcc


@<TRIPOS>ATOM
      1 C4           0.0000     0.0000     0.0000 ca         1 67B      -0.041000
      2 C2          -2.1790     0.0070     1.2060 c          1 67B       0.609700
      3 C1          -4.3150    -0.4760     2.2740 c3         1 67B       0.079800
      4 C5           1.3810     0.0000     0.0000 ca         1 67B      -0.114000
      5 C8          -0.0030     0.0010     2.4140 ca         1 67B      -0.109000
      6 C9           2.1390    -0.0010     3.6850 cc         1 67B      -0.040400
      7 C6           2.0770     0.0000     1.1920 ca         1 67B      -0.071000
      8 C10          2.0640     1.0590     4.5330 cd         1 67B      -0.169400
      9 C12          3.5290     0.0390     6.0940 c          1 67B       0.648100
     10 N1           2.7510     1.0660     5.7100 n          1 67B       0.099000
     11 C13          3.6610    -1.1030     5.2820 cd         1 67B      -0.399900
     12 N2           4.3570    -2.2850     5.3960 na         1 67B       0.476900
     13 C16          4.1160    -3.0450     4.2930 cd         1 67B      -0.311300
     14 C15          3.2800    -2.3850     3.4650 cc         1 67B      -0.165000
     15 C14          2.9720    -1.1490     4.0640 cc         1 67B      -0.060800
     16 C7           1.3890     0.0000     2.4070 ca         1 67B      -0.033800
     17 C3          -0.7010     0.0010     1.2080 ca         1 67B      -0.151600
     18 O           -2.7840     0.5440     0.3000 o          1 67B      -0.643100
     19 N           -2.8560    -0.5830     2.2110 n          1 67B      -0.161800
     20 C           -2.1320    -1.3310     3.2420 c3         1 67B       0.079800
     21 H1          -0.5410    -0.0000    -0.9390 ha         1 67B       0.122000
     22 H2          -4.6060     0.5630     2.1720 h1         1 67B       0.013700
     23 H3          -4.7550    -1.0540     1.4700 h1         1 67B       0.013700
     24 H4          -4.6650    -0.8570     3.2260 h1         1 67B       0.013700
     25 H5           1.9210    -0.0000    -0.9390 ha         1 67B       0.107000
     26 H6          -0.5410     0.0020     3.3540 ha         1 67B       0.132000
     27 H7           3.1600    -0.0010     1.1850 ha         1 67B       0.111000
     28 H8           1.4490     1.9110     4.2690 h4         1 67B       0.134000
     29 H9           2.2200     1.9280     7.5410 h1         1 67B       0.021367
     30 H10          3.6180     2.6650     6.7450 h1         1 67B       0.021367
     31 H11          1.9870     2.9690     6.1300 h1         1 67B       0.021367
     32 H12          4.9450    -2.5430     6.1640 hn         1 67B       0.117700
     33 H13          4.5310    -4.0290     4.1080 h4         1 67B       0.145000
     34 H14          2.9110    -2.7420     2.5120 ha         1 67B       0.132000
     35 H15         -1.2680    -1.8130     2.7990 h1         1 67B       0.013700
     36 H16         -2.7850    -2.0830     3.6680 h1         1 67B       0.013700
     37 H17         -1.8070    -0.6520     4.0210 h1         1 67B       0.013700
     38 C11          2.6360     2.2330     6.5890 c3         1 67B       0.056300
     39 O1           4.1230     0.0950     7.1580 o          1 67B      -0.725500
@<TRIPOS>BOND
     1     1     4 ar  
     2     1    17 ar  
     3     1    21 1   
     4     2    17 1   
     5     2    18 2   
     6     2    19 1   
     7     3    19 1   
     8     3    22 1   
     9     3    23 1   
    10     3    24 1   
    11     4     7 ar  
    12     4    25 1   
    13     5    16 ar  
    14     5    17 ar  
    15     5    26 1   
    16     6     8 2   
    17     6    15 1   
    18     6    16 1   
    19     7    16 ar  
    20     7    27 1   
    21     8    10 1   
    22     8    28 1   
    23     9    10 1   
    24     9    11 1   
    25     9    39 2   
    26    10    38 1   
    27    11    12 1   
    28    11    15 2   
    29    12    13 1   
    30    12    32 1   
    31    13    14 2   
    32    13    33 1   
    33    14    15 1   
    34    14    34 1   
    35    19    20 1   
    36    20    35 1   
    37    20    36 1   
    38    20    37 1   
    39    29    38 1   
    40    30    38 1   
    41    31    38 1   
@<TRIPOS>SUBSTRUCTURE
     1 67B         1 TEMP              0 ****  ****    0 ROOT
