@<TRIPOS>MOLECULE
molecule
   39    41     1     0     0
SMALL
bcc


@<TRIPOS>ATOM
      1 C4           0.0000     0.0000     0.0000 ca         1 67B      -0.071000
      2 C2          -2.1790     0.0070     1.2060 c          1 67B       0.675700
      3 C1          -4.3150    -0.4760     2.2740 c3         1 67B       0.097300
      4 C5           1.3810     0.0000     0.0000 ca         1 67B      -0.142000
      5 C8          -0.0030     0.0010     2.4140 ca         1 67B      -0.112000
      6 C9           2.1390    -0.0010     3.6850 cc         1 67B      -0.073400
      7 C6           2.0770     0.0000     1.1920 ca         1 67B      -0.093000
      8 C10          2.0640     1.0590     4.5330 cd         1 67B      -0.020400
      9 C12          3.5290     0.0390     6.0940 c          1 67B       0.727100
     10 N1           2.7510     1.0660     5.7100 n          1 67B      -0.329000
     11 C13          3.6610    -1.1030     5.2820 cc         1 67B      -0.191900
     12 N2           4.3570    -2.2850     5.3960 na         1 67B      -0.122100
     13 C16          4.1160    -3.0450     4.2930 cc         1 67B      -0.116300
     14 C15          3.2800    -2.3850     3.4650 cd         1 67B      -0.205000
     15 C14          2.9720    -1.1490     4.0640 cd         1 67B      -0.054800
     16 C7           1.3890     0.0000     2.4070 ca         1 67B      -0.043800
     17 C3          -0.7010     0.0010     1.2080 ca         1 67B      -0.146600
     18 O           -2.7840     0.5440     0.3000 o          1 67B      -0.603100
     19 N           -2.8560    -0.5830     2.2110 n          1 67B      -0.495800
     20 C           -2.1320    -1.3310     3.2420 c3         1 67B       0.097300
     21 H1          -0.5410    -0.0000    -0.9390 ha         1 67B       0.152000
     22 H2          -4.6060     0.5630     2.1720 h1         1 67B       0.043033
     23 H3          -4.7550    -1.0540     1.4700 h1         1 67B       0.043033
     24 H4          -4.6650    -0.8570     3.2260 h1         1 67B       0.043033
     25 H5           1.9210    -0.0000    -0.9390 ha         1 67B       0.136000
     26 H6          -0.5410     0.0020     3.3540 ha         1 67B       0.148000
     27 H7           3.1600    -0.0010     1.1850 ha         1 67B       0.140000
     28 H8           1.4490     1.9110     4.2690 h4         1 67B       0.160000
     29 H9           2.2200     1.9280     7.5410 h1         1 67B       0.054033
     30 H10          3.6180     2.6650     6.7450 h1         1 67B       0.054033
     31 H11          1.9870     2.9690     6.1300 h1         1 67B       0.054033
     32 H12          4.9450    -2.5430     6.1640 hn         1 67B       0.312700
     33 H13          4.5310    -4.0290     4.1080 h4         1 67B       0.171000
     34 H14          2.9110    -2.7420     2.5120 ha         1 67B       0.157000
     35 H15         -1.2680    -1.8130     2.7990 h1         1 67B       0.043033
     36 H16         -2.7850    -2.0830     3.6680 h1         1 67B       0.043033
     37 H17         -1.8070    -0.6520     4.0210 h1         1 67B       0.043033
     38 C11          2.6360     2.2330     6.5890 c3         1 67B       0.092300
     39 O1           4.1230     0.0950     7.1580 o          1 67B      -0.669500
@<TRIPOS>BOND
     1    13    12 1   
     2    13    14 2   
     3    12    11 1   
     4    14    15 1   
     5    11    15 2   
     6    11     9 1   
     7    15     6 1   
     8    39     9 2   
     9     9    10 1   
    10     7     4 ar  
    11     7    16 ar  
    12     4     1 ar  
    13     6    16 1   
    14     6     8 2   
    15    16     5 ar  
    16    10     8 1   
    17    10    38 1   
    18     1    17 ar  
    19     5    17 ar  
    20    17     2 1   
    21     2    18 2   
    22     2    19 1   
    23     3    19 1   
    24    19    20 1   
    25     1    21 1   
    26     3    22 1   
    27     3    23 1   
    28     3    24 1   
    29     4    25 1   
    30     5    26 1   
    31     7    27 1   
    32     8    28 1   
    33    38    29 1   
    34    38    30 1   
    35    38    31 1   
    36    12    32 1   
    37    13    33 1   
    38    14    34 1   
    39    20    35 1   
    40    20    36 1   
    41    20    37 1   
@<TRIPOS>SUBSTRUCTURE
     1 67B         1 TEMP              0 ****  ****    0 ROOT
