@<TRIPOS>MOLECULE
67C
   46    48     1     0     0
SMALL
bcc


@<TRIPOS>ATOM
      1 C1           0.0000     0.0000     0.0000 c3         1 67C       0.079800
      2 N1           6.9160    -2.1980    -5.4180 n          1 67C       0.102000
      3 O1           8.1670    -3.9370    -5.9980 o          1 67C      -0.727500
      4 C2           2.1390    -0.0010    -1.1670 c          1 67C       0.609700
      5 N2           8.3520    -4.7940    -3.1600 na         1 67C       0.476900
      6 C3           3.6130    -0.1090    -1.1700 ca         1 67C      -0.148600
      7 C4           4.2560    -0.8810    -2.1370 ca         1 67C      -0.037000
      8 C5           5.6440    -0.9770    -2.1320 ca         1 67C      -0.033800
      9 C6           6.3840    -0.3030    -1.1620 ca         1 67C      -0.073000
     10 C7           5.7430     0.4600    -0.2050 ca         1 67C      -0.110000
     11 C8           4.3660     0.5650    -0.2070 ca         1 67C      -0.110000
     12 C9           6.3350    -1.7960    -3.1570 cc         1 67C      -0.044400
     13 C10          6.2830    -1.4510    -4.4700 cd         1 67C      -0.160400
     14 C15          7.6180    -3.3030    -5.1120 c          1 67C       0.651100
     15 C12          5.6020    -2.4410    -7.4660 c3         1 67C      -0.004200
     16 C13          5.5070    -2.0170    -8.9100 c2         1 67C      -0.158200
     17 C14          5.4500    -2.9210    -9.8550 c2         1 67C      -0.152000
     18 C16          7.7250    -3.7360    -3.7760 cd         1 67C      -0.400900
     19 C19          8.1220    -4.7240    -1.8200 cd         1 67C      -0.312300
     20 C18          7.3570    -3.6450    -1.5530 cc         1 67C      -0.166000
     21 C17          7.0890    -2.9960    -2.7730 cc         1 67C      -0.057800
     22 O            1.5340     0.0870    -2.2180 o          1 67C      -0.644100
     23 N            1.4650     0.0000     0.0000 n          1 67C      -0.158800
     24 C            2.1970     0.0000     1.2680 c3         1 67C       0.079800
     25 H1          -0.3610     0.0150     1.0210 h1         1 67C       0.013200
     26 H2          -0.3610    -0.8920    -0.4970 h1         1 67C       0.013200
     27 H3          -0.3610     0.8770    -0.5240 h1         1 67C       0.013200
     28 H4           8.8920    -5.4990    -3.6220 hn         1 67C       0.117700
     29 H5           3.6770    -1.4030    -2.8880 ha         1 67C       0.124000
     30 H6           7.4650    -0.3790    -1.1560 ha         1 67C       0.111000
     31 H7           6.3220     0.9840     0.5460 ha         1 67C       0.105000
     32 H8           3.8690     1.1650     0.5460 ha         1 67C       0.122000
     33 H9           5.7300    -0.5680    -4.7680 h4         1 67C       0.137000
     34 H10          7.7190    -2.0940    -7.3470 h1         1 67C       0.042700
     35 H11          6.7260    -0.7080    -6.8750 h1         1 67C       0.042700
     36 H12          4.7070    -2.1320    -6.9400 hc         1 67C       0.029200
     37 H13          5.6990    -3.5180    -7.4120 hc         1 67C       0.029200
     38 H14          5.4850    -0.9650    -9.1650 ha         1 67C       0.100000
     39 H15          5.4720    -3.9740    -9.6010 ha         1 67C       0.086000
     40 H16          5.3820    -2.6160   -10.8930 ha         1 67C       0.086000
     41 H17          8.4940    -5.4260    -1.0840 h4         1 67C       0.144000
     42 H18          7.0130    -3.3330    -0.5740 ha         1 67C       0.131000
     43 H19          3.0800    -0.6210     1.1750 h1         1 67C       0.013200
     44 H20          2.4930     1.0130     1.5150 h1         1 67C       0.013200
     45 H21          1.5610    -0.3920     2.0530 h1         1 67C       0.013200
     46 C11          6.8240    -1.7850    -6.8210 c3         1 67C       0.014000
@<TRIPOS>BOND
     1     1    23 1   
     2     1    25 1   
     3     1    26 1   
     4     1    27 1   
     5     2    13 1   
     6     2    14 1   
     7     2    46 1   
     8     3    14 2   
     9     4     6 1   
    10     4    22 2   
    11     4    23 1   
    12     5    18 1   
    13     5    19 1   
    14     5    28 1   
    15     6     7 ar  
    16     6    11 ar  
    17     7     8 ar  
    18     7    29 1   
    19     8     9 ar  
    20     8    12 1   
    21     9    10 ar  
    22     9    30 1   
    23    10    11 ar  
    24    10    31 1   
    25    11    32 1   
    26    12    13 2   
    27    12    21 1   
    28    13    33 1   
    29    14    18 1   
    30    15    16 1   
    31    15    36 1   
    32    15    37 1   
    33    15    46 1   
    34    16    17 2   
    35    16    38 1   
    36    17    39 1   
    37    17    40 1   
    38    18    21 2   
    39    19    20 2   
    40    19    41 1   
    41    20    21 1   
    42    20    42 1   
    43    23    24 1   
    44    24    43 1   
    45    24    44 1   
    46    24    45 1   
    47    34    46 1   
    48    35    46 1   
@<TRIPOS>SUBSTRUCTURE
     1 67C         1 TEMP              0 ****  ****    0 ROOT
