@<TRIPOS>MOLECULE
67D
   61    66     1     0     0
SMALL
bcc


@<TRIPOS>ATOM
      1 S            0.0000     0.0000     0.0000 s6         1 67D       1.364100
      2 N            1.6550     0.0000     0.0000 ns         1 67D      -0.354300
      3 C7           3.1910    10.2130     5.0890 cc         1 67D      -0.404100
      4 C6           3.3430     8.1620     4.2980 cc         1 67D      -0.179300
      5 C5           2.8490     6.9890     3.5780 cc         1 67D       0.016100
      6 C4           1.5700     7.0580     3.0180 cd         1 67D       0.129800
      7 C3           4.3870     9.6860     5.4270 cd         1 67D       0.042600
      8 C2           1.2850     9.2210     3.7900 cc         1 67D       0.307400
      9 C8           2.4730     5.0900     2.6080 cd         1 67D       0.236700
     10 C9           2.3290     0.0000     1.1680 c          1 67D       0.637100
     11 C11          4.3470     0.0010     2.6100 c3         1 67D       0.084800
     12 C10          3.8360     0.0010     1.1680 c3         1 67D      -0.100400
     13 N1           2.5150     9.2580     4.3760 na         1 67D       0.393900
     14 N3           0.8450     8.1770     3.1520 nd         1 67D      -0.512000
     15 N7           3.3480     5.7680     3.2960 nc         1 67D      -0.466100
     16 N9           1.3580     5.8460     2.4110 na         1 67D       0.257000
     17 C1'          0.1520     5.4390     1.6840 c3         1 67D       0.150800
     18 O4'          0.0870     4.0020     1.5720 os         1 67D      -0.384600
     19 C2'          0.2170     5.9150     0.2110 c3         1 67D       0.128100
     20 O2'         -0.2770     7.2510     0.0840 oh         1 67D      -0.538800
     21 C3'         -0.7250     4.9100    -0.4960 c3         1 67D       0.124100
     22 O3'         -2.0250     5.4760    -0.6670 oh         1 67D      -0.547800
     23 C4'         -0.7820     3.7070     0.4660 c3         1 67D       0.152100
     24 C5'         -0.3000     2.4440    -0.2510 c3         1 67D       0.247400
     25 O5'         -0.4510     1.3170     0.6150 os         1 67D      -0.434500
     26 O2P         -0.4010     0.0340    -1.3620 o          1 67D      -0.586300
     27 O3P         -0.4010    -1.0220     0.9030 o          1 67D      -0.586300
     28 N2           4.4570     8.4410     4.9410 nd         1 67D      -0.209600
     29 O13          1.7230     0.0000     2.2170 o          1 67D      -0.576100
     30 C19          5.8540     0.0000     2.6100 cc         1 67D      -0.162400
     31 C20          6.7240     1.1740     2.5080 ca         1 67D      -0.097800
     32 C21          8.0430     0.6840     2.5500 ca         1 67D      -0.227200
     33 N22          7.9640    -0.6850     2.6700 na         1 67D       0.354600
     34 C23          6.6520    -1.0740     2.7100 cd         1 67D      -0.263100
     35 C36          9.1050     1.5790     2.4720 ca         1 67D      -0.106000
     36 C37          8.8550     2.9280     2.3530 ca         1 67D      -0.083000
     37 C38          7.5530     3.4070     2.3120 ca         1 67D      -0.125000
     38 C39          6.4950     2.5460     2.3870 ca         1 67D      -0.045000
     39 H1           2.1550    -0.0530    -0.8660 hn         1 67D       0.234500
     40 H3           5.1600    10.1880     5.9960 h4         1 67D       0.141000
     41 H4           0.6490    10.0960     3.8600 h5         1 67D       0.009100
     42 H5           2.6110     4.0780     2.2480 h5         1 67D       0.040800
     43 H6           3.9860     0.8860     3.1200 hc         1 67D       0.030700
     44 H7           3.9850    -0.8830     3.1210 hc         1 67D       0.030700
     45 H8           4.1980    -0.8840     0.6570 hc         1 67D       0.033700
     46 H9           4.1970     0.8850     0.6570 hc         1 67D       0.033700
     47 H10         -0.7380     5.8220     2.1680 h2         1 67D       0.073700
     48 H11          1.2260     5.8310    -0.1750 h1         1 67D       0.022700
     49 H12          0.0140     7.6170    -0.7350 ho         1 67D       0.392000
     50 H13         -0.3070     4.6100    -1.4500 h1         1 67D       0.012700
     51 H14         -2.2720     5.4280    -1.5750 ho         1 67D       0.394000
     52 H15         -1.7960     3.5700     0.8220 h1         1 67D       0.060700
     53 H16         -0.8880     2.2910    -1.1480 h1         1 67D       0.017200
     54 H17          0.7440     2.5570    -0.5190 h1         1 67D       0.017200
     55 H18          8.7490    -1.3040     2.7270 hn         1 67D       0.113700
     56 H19          6.3090    -2.0960     2.8080 h4         1 67D       0.140000
     57 H20         10.1250     1.2150     2.5030 ha         1 67D       0.098000
     58 H21          9.6840     3.6230     2.2930 ha         1 67D       0.100000
     59 H22          7.3750     4.4720     2.2190 ha         1 67D       0.109000
     60 H23          5.4820     2.9260     2.3540 ha         1 67D       0.103000
     61 H2           2.8330    11.2050     5.3350 h4         1 67D       0.157000
@<TRIPOS>BOND
     1     1     2 1   
     2     1    25 1   
     3     1    26 2   
     4     1    27 2   
     5     2    10 1   
     6     2    39 1   
     7     3     7 2   
     8     3    13 1   
     9     3    61 1   
    10     4     5 1   
    11     4    13 1   
    12     4    28 2   
    13     5     6 2   
    14     5    15 1   
    15     6    14 1   
    16     6    16 1   
    17     7    28 1   
    18     7    40 1   
    19     8    13 1   
    20     8    14 2   
    21     8    41 1   
    22     9    15 2   
    23     9    16 1   
    24     9    42 1   
    25    10    12 1   
    26    10    29 2   
    27    11    12 1   
    28    11    30 1   
    29    11    43 1   
    30    11    44 1   
    31    12    45 1   
    32    12    46 1   
    33    16    17 1   
    34    17    18 1   
    35    17    19 1   
    36    17    47 1   
    37    18    23 1   
    38    19    20 1   
    39    19    21 1   
    40    19    48 1   
    41    20    49 1   
    42    21    22 1   
    43    21    23 1   
    44    21    50 1   
    45    22    51 1   
    46    23    24 1   
    47    23    52 1   
    48    24    25 1   
    49    24    53 1   
    50    24    54 1   
    51    30    31 1   
    52    30    34 2   
    53    31    32 ar  
    54    31    38 ar  
    55    32    33 1   
    56    32    35 ar  
    57    33    34 1   
    58    33    55 1   
    59    34    56 1   
    60    35    36 ar  
    61    35    57 1   
    62    36    37 ar  
    63    36    58 1   
    64    37    38 ar  
    65    37    59 1   
    66    38    60 1   
@<TRIPOS>SUBSTRUCTURE
     1 67D         1 TEMP              0 ****  ****    0 ROOT
