@<TRIPOS>MOLECULE
molecule
   61    66     1     0     0
SMALL
bcc


@<TRIPOS>ATOM
      1 S            0.0000     0.0000     0.0000 s6         1 67D       1.657100
      2 N            1.6550     0.0000     0.0000 ns         1 67D      -0.688300
      3 C7           3.1910    10.2130     5.0890 cc         1 67D      -0.233100
      4 C6           3.3430     8.1620     4.2980 cd         1 67D       0.030700
      5 C5           2.8490     6.9890     3.5780 cd         1 67D       0.026100
      6 C4           1.5700     7.0580     3.0180 cc         1 67D       0.377800
      7 C3           4.3870     9.6860     5.4270 cc         1 67D       0.031600
      8 C2           1.2850     9.2210     3.7900 cd         1 67D       0.546400
      9 C8           2.4730     5.0900     2.6080 cc         1 67D       0.418700
     10 C9           2.3290     0.0000     1.1680 c          1 67D       0.668100
     11 C11          4.3470     0.0010     2.6100 c3         1 67D       0.011800
     12 C10          3.8360     0.0010     1.1680 c3         1 67D      -0.156400
     13 N1           2.5150     9.2580     4.3760 na         1 67D      -0.143100
     14 N3           0.8450     8.1770     3.1520 nc         1 67D      -0.683000
     15 N7           3.3480     5.7680     3.2960 nd         1 67D      -0.556100
     16 N9           1.3580     5.8460     2.4110 na         1 67D      -0.222000
     17 C1'          0.1520     5.4390     1.6840 c3         1 67D       0.264800
     18 O4'          0.0870     4.0020     1.5720 os         1 67D      -0.397600
     19 C2'          0.2170     5.9150     0.2110 c3         1 67D       0.093100
     20 O2'         -0.2770     7.2510     0.0840 oh         1 67D      -0.555800
     21 C3'         -0.7250     4.9100    -0.4960 c3         1 67D       0.079100
     22 O3'         -2.0250     5.4760    -0.6670 oh         1 67D      -0.566800
     23 C4'         -0.7820     3.7070     0.4660 c3         1 67D       0.131100
     24 C5'         -0.3000     2.4440    -0.2510 c3         1 67D       0.159400
     25 O5'         -0.4510     1.3170     0.6150 os         1 67D      -0.531500
     26 O2P         -0.4010     0.0340    -1.3620 o          1 67D      -0.630800
     27 O3P         -0.4010    -1.0220     0.9030 o          1 67D      -0.630800
     28 N2           4.4570     8.4410     4.9410 nc         1 67D      -0.283600
     29 O13          1.7230     0.0000     2.2170 o          1 67D      -0.541100
     30 C19          5.8540     0.0000     2.6100 cd         1 67D      -0.165400
     31 C20          6.7240     1.1740     2.5080 ca         1 67D      -0.101800
     32 C21          8.0430     0.6840     2.5500 ca         1 67D      -0.039200
     33 N22          7.9640    -0.6850     2.6700 na         1 67D      -0.183400
     34 C23          6.6520    -1.0740     2.7100 cc         1 67D      -0.094100
     35 C36          9.1050     1.5790     2.4720 ca         1 67D      -0.145000
     36 C37          8.8550     2.9280     2.3530 ca         1 67D      -0.107000
     37 C38          7.5530     3.4070     2.3120 ca         1 67D      -0.150000
     38 C39          6.4950     2.5460     2.3870 ca         1 67D      -0.079000
     39 H1           2.1550    -0.0530    -0.8660 hn         1 67D       0.344500
     40 H3           5.1600    10.1880     5.9960 h4         1 67D       0.185000
     41 H4           0.6490    10.0960     3.8600 h5         1 67D       0.062100
     42 H5           2.6110     4.0780     2.2480 h5         1 67D       0.089800
     43 H6           3.9860     0.8860     3.1200 hc         1 67D       0.065200
     44 H7           3.9850    -0.8830     3.1210 hc         1 67D       0.065200
     45 H8           4.1980    -0.8840     0.6570 hc         1 67D       0.068200
     46 H9           4.1970     0.8850     0.6570 hc         1 67D       0.068200
     47 H10         -0.7380     5.8220     2.1680 h2         1 67D       0.117700
     48 H11          1.2260     5.8310    -0.1750 h1         1 67D       0.060700
     49 H12          0.0140     7.6170    -0.7350 ho         1 67D       0.408000
     50 H13         -0.3070     4.6100    -1.4500 h1         1 67D       0.047700
     51 H14         -2.2720     5.4280    -1.5750 ho         1 67D       0.410000
     52 H15         -1.7960     3.5700     0.8220 h1         1 67D       0.101700
     53 H16         -0.8880     2.2910    -1.1480 h1         1 67D       0.064700
     54 H17          0.7440     2.5570    -0.5190 h1         1 67D       0.064700
     55 H18          8.7490    -1.3040     2.7270 hn         1 67D       0.296700
     56 H19          6.3090    -2.0960     2.8080 h4         1 67D       0.166000
     57 H20         10.1250     1.2150     2.5030 ha         1 67D       0.124000
     58 H21          9.6840     3.6230     2.2930 ha         1 67D       0.130000
     59 H22          7.3750     4.4720     2.2190 ha         1 67D       0.137000
     60 H23          5.4820     2.9260     2.3540 ha         1 67D       0.130000
     61 H2           2.8330    11.2050     5.3350 h4         1 67D       0.180000
@<TRIPOS>BOND
     1     7    28 1   
     2     7     3 2   
     3    28     4 2   
     4     3    13 1   
     5     4    13 1   
     6     4     5 1   
     7    13     8 1   
     8     5    15 1   
     9     5     6 2   
    10    15     9 2   
    11     8    14 2   
    12     6    14 1   
    13     6    16 1   
    14     9    16 1   
    15    16    17 1   
    16    17    19 1   
    17    17    18 1   
    18    20    19 1   
    19    19    21 1   
    20    18    23 1   
    21    21    23 1   
    22    21    22 1   
    23    23    24 1   
    24    24    25 1   
    25    29    10 2   
    26    25     1 1   
    27    27     1 2   
    28    34    33 1   
    29    34    30 2   
    30     1     2 1   
    31     1    26 2   
    32    11    30 1   
    33    11    12 1   
    34    10     2 1   
    35    10    12 1   
    36    33    32 1   
    37    30    31 1   
    38    32    31 ar  
    39    32    35 ar  
    40    31    38 ar  
    41    35    36 ar  
    42    38    37 ar  
    43    36    37 ar  
    44     2    39 1   
    45     3    61 1   
    46     7    40 1   
    47     8    41 1   
    48     9    42 1   
    49    11    43 1   
    50    11    44 1   
    51    12    45 1   
    52    12    46 1   
    53    17    47 1   
    54    19    48 1   
    55    20    49 1   
    56    21    50 1   
    57    22    51 1   
    58    23    52 1   
    59    24    53 1   
    60    24    54 1   
    61    33    55 1   
    62    34    56 1   
    63    35    57 1   
    64    36    58 1   
    65    37    59 1   
    66    38    60 1   
@<TRIPOS>SUBSTRUCTURE
     1 67D         1 TEMP              0 ****  ****    0 ROOT
