@<TRIPOS>MOLECULE
molecule
   38    41     1     0     0
SMALL
bcc


@<TRIPOS>ATOM
      1 C4           0.0000     0.0000     0.0000 cc         1 67G       0.207600
      2 C6          -0.0590    -0.0030     2.3320 c          1 67G       0.580500
      3 C11         -4.0380    -0.0020    -0.6610 c3         1 67G       0.728200
      4 C8          -2.0970    -0.0040     0.9710 cc         1 67G       0.025400
      5 C9          -2.5850    -0.0010    -0.2570 cd         1 67G      -0.196400
      6 N3           1.3200     0.0000     0.0000 nd         1 67G      -0.329600
      7 C1           1.3370    -0.0020     2.3330 cc         1 67G      -0.315200
      8 C2           2.0140     0.0000     1.1320 cd         1 67G       0.189400
      9 N5          -0.7350    -0.0020     1.1460 n          1 67G      -0.093200
     10 O7          -0.6730    -0.0060     3.3870 o          1 67G      -0.612500
     11 S10         -1.1740     0.0070    -1.3280 ss         1 67G      -0.023800
     12 F12         -4.2680    -1.0420    -1.5670 f          1 67G      -0.205967
     13 F13         -4.8370    -0.1840     0.4720 f          1 67G      -0.205967
     14 F14         -4.3540     1.2200    -1.2640 f          1 67G      -0.205967
     15 C15         -3.0210    -0.0100     2.1620 cx         1 67G      -0.002400
     16 C16         -2.8330     1.0900     3.2080 cx         1 67G      -0.417400
     17 C17         -4.0420     1.1240     2.2700 cx         1 67G      -0.073600
     18 C18         -5.3580     0.8010     2.8450 c1         1 67G       0.246700
     19 N19         -6.3780     0.5710     3.2890 n1         1 67G      -0.298800
     20 C20          3.5200     0.0000     1.1050 c3         1 67G       0.119500
     21 N21          4.0070    -1.3760     0.9740 na         1 67G       0.081400
     22 C22          4.2850    -2.2190     1.9900 cc         1 67G       0.029100
     23 C23          4.7060    -3.3880     1.4510 cd         1 67G      -0.286300
     24 C24          4.6840    -3.2530     0.0590 cd         1 67G       0.254600
     25 N25          4.2590    -2.0490    -0.2270 nc         1 67G      -0.425800
     26 C26          5.0750    -4.3130    -0.9380 c3         1 67G       0.618600
     27 F27          3.9520    -5.0790    -1.2690 f          1 67G      -0.211300
     28 F28          5.5810    -3.7040    -2.0910 f          1 67G      -0.211300
     29 F29          6.0550    -5.1400    -0.3790 f          1 67G      -0.211300
     30 Cl3          4.1320    -1.8690     3.6830 cl         1 67G      -0.037400
     31 H2           1.8890    -0.0030     3.2650 ha         1 67G       0.181000
     32 H3          -2.7880     0.8300     2.8050 hc         1 67G       0.224700
     33 H4          -1.8240     1.4690     3.3110 hc         1 67G       0.200700
     34 H5          -3.6800     1.7500     3.3490 hc         1 67G       0.200700
     35 H6          -3.8780     1.9650     1.6070 hc         1 67G       0.095700
     36 H7           3.8960     0.5610     1.9520 h1         1 67G       0.099700
     37 H8           3.8640     0.4600     0.1860 h1         1 67G       0.099700
     38 H9           5.0070    -4.2710     2.0010 ha         1 67G       0.182000
@<TRIPOS>BOND
     1    12     3 1
     2    16    17 1
     3    16    15 1
     4    17    18 1
     5    17    15 1
     6    14     3 1
     7    10     2 2
     8     3     5 1
     9     3    13 1
    10    18    19 3
    11    15     4 1
    12     4     5 2
    13     4     9 1
    14     2     9 1
    15     2     7 1
    16     5    11 1
    17     9     1 1
    18     7     8 2
    19    11     1 1
    20     1     6 2
    21    30    22 1
    22     8     6 1
    23     8    20 1
    24    20    21 1
    25    22    21 1
    26    22    23 2
    27    21    25 1
    28    23    24 1
    29    25    24 2
    30    24    26 1
    31    26    27 1
    32    26    29 1
    33    26    28 1
    34     7    31 1
    35    15    32 1
    36    16    33 1
    37    16    34 1
    38    17    35 1
    39    20    36 1
    40    20    37 1
    41    23    38 1
@<TRIPOS>SUBSTRUCTURE
     1 67G         1 TEMP              0 ****  ****    0 ROOT
