@<TRIPOS>MOLECULE
67G
   38    42     1     0     0
SMALL
bcc


@<TRIPOS>ATOM
      1 C4           0.0000     0.0000     0.0000 c2         1 67G      -0.194000
      2 C6          -0.0590    -0.0030     2.3320 c2         1 67G       0.230000
      3 C11         -4.0380    -0.0020    -0.6610 c3         1 67G       0.481000
      4 C8          -2.0970    -0.0040     0.9710 c2         1 67G      -0.118000
      5 C9          -2.5850    -0.0010    -0.2570 c2         1 67G      -0.382000
      6 N3           1.3200     0.0000     0.0000 n2         1 67G      -0.044000
      7 C1           1.3370    -0.0020     2.3330 c2         1 67G      -0.267000
      8 C2           2.0140     0.0000     1.1320 c2         1 67G      -0.006000
      9 N5          -0.7350    -0.0020     1.1460 n          1 67G       0.288000
     10 O7          -0.6730    -0.0060     3.3870 o          1 67G      -0.369000
     11 S10         -1.1740     0.0070    -1.3280 ss         1 67G       0.362000
     12 F12         -4.2680    -1.0420    -1.5670 f          1 67G      -0.125667
     13 F13         -4.8370    -0.1840     0.4720 f          1 67G      -0.125667
     14 F14         -4.3540     1.2200    -1.2640 f          1 67G      -0.125667
     15 C15         -3.0210    -0.0100     2.1620 cx         1 67G       0.017000
     16 C16         -2.8330     1.0900     3.2080 cx         1 67G      -0.069000
     17 C17         -4.0420     1.1240     2.2700 DU         1 67G      -0.109000
     18 C18         -5.3580     0.8010     2.8450 c1         1 67G      -0.124000
     19 N19         -6.3780     0.5710     3.2890 n1         1 67G      -0.002000
     20 C20          3.5200     0.0000     1.1050 c3         1 67G      -0.032000
     21 N21          4.0070    -1.3760     0.9740 na         1 67G       0.299000
     22 C22          4.2850    -2.2190     1.9900 c2         1 67G      -0.272000
     23 C23          4.7060    -3.3880     1.4510 c2         1 67G      -0.191000
     24 C24          4.6840    -3.2530     0.0590 c2         1 67G      -0.168000
     25 N25          4.2590    -2.0490    -0.2270 n2         1 67G      -0.123000
     26 C26          5.0750    -4.3130    -0.9380 c3         1 67G       0.456000
     27 F27          3.9520    -5.0790    -1.2690 f          1 67G      -0.131000
     28 F28          5.5810    -3.7040    -2.0910 f          1 67G      -0.131000
     29 F29          6.0550    -5.1400    -0.3790 f          1 67G      -0.131000
     30 Cl3          4.1320    -1.8690     3.6830 cl         1 67G       0.146000
     31 H2           1.8890    -0.0030     3.2650 ha         1 67G       0.156000
     32 H3          -2.7880     0.8300     2.8050 hc         1 67G      -0.025000
     33 H4          -1.8240     1.4690     3.3110 hc         1 67G       0.118000
     34 H5          -3.6800     1.7500     3.3490 DU         1 67G       0.250000
     35 H6          -3.8780     1.9650     1.6070 ha         1 67G       0.104000
     36 H7           3.8960     0.5610     1.9520 h1         1 67G       0.101000
     37 H8           3.8640     0.4600     0.1860 h1         1 67G       0.101000
     38 H9           5.0070    -4.2710     2.0010 ha         1 67G       0.155000
@<TRIPOS>BOND
     1     1     6 1   
     2     1     9 1   
     3     1    11 1   
     4     2     7 1   
     5     2     9 1   
     6     2    10 1   
     7     3     5 1   
     8     3    12 1   
     9     3    13 1   
    10     3    14 1   
    11     4     5 1   
    12     4     9 1   
    13     4    15 1   
    14     5    11 1   
    15     6     8 1   
    16     7     8 1   
    17     7    31 1   
    18     8    20 1   
    19    15    16 1   
    20    15    17 1   
    21    15    32 1   
    22    16    17 1   
    23    16    33 1   
    24    16    34 1   
    25    17    18 1   
    26    17    34 1   
    27    17    35 1   
    28    18    19 1   
    29    20    21 1   
    30    20    36 1   
    31    20    37 1   
    32    21    22 1   
    33    21    25 1   
    34    22    23 1   
    35    22    30 1   
    36    23    24 1   
    37    23    38 1   
    38    24    25 1   
    39    24    26 1   
    40    26    27 1   
    41    26    28 1   
    42    26    29 1   
@<TRIPOS>SUBSTRUCTURE
     1 67G         1 TEMP              0 ****  ****    0 ROOT
