@<TRIPOS>MOLECULE
molecule
   45    47     1     0     0
SMALL
bcc


@<TRIPOS>ATOM
      1 C4           0.0000     0.0000     0.0000 c3         1 67H       0.293000
      2 C5           1.5070     0.0000     0.0000 cc         1 67H       0.188400
      3 C6           2.1980     0.0000     1.1790 cd         1 67H      -0.322200
      4 C11          6.0800     0.0120    -1.5030 cc         1 67H      -0.010400
      5 C7           3.5950    -0.0010     1.1550 c          1 67H       0.581500
      6 C10          5.6210     0.0050    -0.2400 cd         1 67H      -0.098900
      7 C13          3.4970     0.0000    -1.1740 cd         1 67H       0.210600
      8 N3          -0.4890     1.2530    -0.5840 nh         1 67H      -0.725000
      9 C1          -2.1780     0.9370    -2.3240 c3         1 67H      -0.123100
     10 C2          -0.7320     1.3420    -2.0250 c3         1 67H       0.232800
     11 O8           4.2270    -0.0010     2.1990 o          1 67H      -0.608500
     12 N9           4.2520    -0.0000    -0.0430 n          1 67H      -0.076200
     13 S12          4.6360    -0.0000    -2.5300 ss         1 67H      -0.116800
     14 N14          2.1780    -0.0050    -1.1470 nc         1 67H      -0.353600
     15 C15          7.5190     0.0180    -1.9510 c3         1 67H      -0.006800
     16 C16          6.5450     0.0060     0.8970 c          1 67H       0.696700
     17 O17          6.8890    -1.0470     1.4030 o          1 67H      -0.569100
     18 N18          7.0160     1.1710     1.3830 ns         1 67H      -0.569900
     19 C19          8.0240     1.1690     2.4470 c3         1 67H       0.106300
     20 C20         -0.7210     2.3610     0.2350 ca         1 67H       0.189600
     21 C21         -1.1840     3.5490    -0.3170 ca         1 67H      -0.183500
     22 C22         -1.4130     4.6420     0.4940 ca         1 67H      -0.120000
     23 C23         -1.1820     4.5560     1.8570 ca         1 67H       0.074900
     24 C24         -0.7220     3.3730     2.4090 ca         1 67H      -0.120000
     25 C25         -0.4950     2.2750     1.6030 ca         1 67H      -0.183500
     26 F26         -1.4070     5.6280     2.6480 f          1 67H      -0.147900
     27 H1          -0.3610    -0.8370    -0.5860 h1         1 67H       0.070700
     28 H2          -0.3610    -0.0890     1.0170 h1         1 67H       0.070700
     29 H3           1.6730    -0.1480     2.1150 ha         1 67H       0.172000
     30 H5          -2.6030     1.6230    -3.0470 hc         1 67H       0.041700
     31 H6          -2.1960    -0.0680    -2.7270 hc         1 67H       0.041700
     32 H7          -2.7590     0.9710    -1.4100 hc         1 67H       0.041700
     33 H8          -0.0560     0.6770    -2.5480 h1         1 67H       0.058700
     34 H9          -0.5660     2.3600    -2.3570 h1         1 67H       0.058700
     35 H10          8.0520    -0.7910    -1.4670 hc         1 67H       0.062700
     36 H11          7.9760     0.9630    -1.6830 hc         1 67H       0.062700
     37 H12          7.5630    -0.1120    -3.0260 hc         1 67H       0.062700
     38 H13          6.6780     2.0390     1.0170 hn         1 67H       0.316500
     39 H14          8.3070     2.1880     2.6780 h1         1 67H       0.046033
     40 H15          8.8970     0.6180     2.1170 h1         1 67H       0.046033
     41 H16          7.6140     0.6980     3.3320 h1         1 67H       0.046033
     42 H17         -1.3650     3.6170    -1.3830 ha         1 67H       0.138500
     43 H18         -1.7740     5.5690     0.0640 ha         1 67H       0.143500
     44 H19         -0.5440     3.3070     3.4760 ha         1 67H       0.143500
     45 H20         -0.1340     1.3500     2.0350 ha         1 67H       0.138500
@<TRIPOS>BOND
     1    26    23 1   
     2    23    22 ar  
     3    23    24 ar  
     4    22    21 ar  
     5    24    25 ar  
     6    21    20 ar  
     7    25    20 ar  
     8    20     8 1   
     9     8     1 1   
    10     8    10 1   
    11     1     2 1   
    12    10     9 1   
    13    14     2 1   
    14    14     7 2   
    15     2     3 2   
    16    13     7 1   
    17    13     4 1   
    18     7    12 1   
    19     3     5 1   
    20    12     5 1   
    21    12     6 1   
    22     4    15 1   
    23     4     6 2   
    24     5    11 2   
    25     6    16 1   
    26    18    19 1   
    27    18    16 1   
    28    16    17 2   
    29     1    27 1   
    30     1    28 1   
    31     3    29 1   
    32     9    30 1   
    33     9    31 1   
    34     9    32 1   
    35    10    33 1   
    36    10    34 1   
    37    15    35 1   
    38    15    36 1   
    39    15    37 1   
    40    18    38 1   
    41    19    39 1   
    42    19    40 1   
    43    19    41 1   
    44    21    42 1   
    45    22    43 1   
    46    24    44 1   
    47    25    45 1   
@<TRIPOS>SUBSTRUCTURE
     1 67H         1 TEMP              0 ****  ****    0 ROOT
