@<TRIPOS>MOLECULE
67H
   45    47     1     0     0
SMALL
bcc


@<TRIPOS>ATOM
      1 C4           0.0000     0.0000     0.0000 c3         1 67H       0.227000
      2 C5           1.5070     0.0000     0.0000 cc         1 67H       0.132400
      3 C6           2.1980     0.0000     1.1790 cd         1 67H      -0.294200
      4 C11          6.0800     0.0120    -1.5030 cc         1 67H       0.061600
      5 C7           3.5950    -0.0010     1.1550 c          1 67H       0.480500
      6 C10          5.6210     0.0050    -0.2400 cd         1 67H      -0.267900
      7 C13          3.4970     0.0000    -1.1740 cd         1 67H       0.043600
      8 N3          -0.4890     1.2530    -0.5840 nh         1 67H      -0.373000
      9 C1          -2.1780     0.9370    -2.3240 c3         1 67H      -0.026100
     10 C2          -0.7320     1.3420    -2.0250 c3         1 67H       0.160800
     11 O8           4.2270    -0.0010     2.1990 o          1 67H      -0.652500
     12 N9           4.2520    -0.0000    -0.0430 n          1 67H       0.400800
     13 S12          4.6360    -0.0000    -2.5300 ss         1 67H      -0.256800
     14 N14          2.1780    -0.0050    -1.1470 nc         1 67H      -0.219600
     15 C15          7.5190     0.0180    -1.9510 c3         1 67H       0.110200
     16 C16          6.5450     0.0060     0.8970 c          1 67H       0.611700
     17 O17          6.8890    -1.0470     1.4030 o          1 67H      -0.611100
     18 N18          7.0160     1.1710     1.3830 ns         1 67H      -0.165900
     19 C19          8.0240     1.1690     2.4470 c3         1 67H       0.085300
     20 C20         -0.7210     2.3610     0.2350 ca         1 67H       0.067600
     21 C21         -1.1840     3.5490    -0.3170 ca         1 67H      -0.172000
     22 C22         -1.4130     4.6420     0.4940 ca         1 67H      -0.079500
     23 C23         -1.1820     4.5560     1.8570 ca         1 67H       0.042900
     24 C24         -0.7220     3.3730     2.4090 ca         1 67H      -0.079500
     25 C25         -0.4950     2.2750     1.6030 ca         1 67H      -0.172000
     26 F26         -1.4070     5.6280     2.6480 f          1 67H      -0.132900
     27 H1          -0.3610    -0.8370    -0.5860 h1         1 67H       0.039700
     28 H2          -0.3610    -0.0890     1.0170 h1         1 67H       0.039700
     29 H3           1.6730    -0.1480     2.1150 ha         1 67H       0.151000
     30 H5          -2.6030     1.6230    -3.0470 hc         1 67H       0.009367
     31 H6          -2.1960    -0.0680    -2.7270 hc         1 67H       0.009367
     32 H7          -2.7590     0.9710    -1.4100 hc         1 67H       0.009367
     33 H8          -0.0560     0.6770    -2.5480 h1         1 67H       0.034200
     34 H9          -0.5660     2.3600    -2.3570 h1         1 67H       0.034200
     35 H10          8.0520    -0.7910    -1.4670 hc         1 67H       0.023367
     36 H11          7.9760     0.9630    -1.6830 hc         1 67H       0.023367
     37 H12          7.5630    -0.1120    -3.0260 hc         1 67H       0.023367
     38 H13          6.6780     2.0390     1.0170 hn         1 67H       0.168500
     39 H14          8.3070     2.1880     2.6780 h1         1 67H       0.013033
     40 H15          8.8970     0.6180     2.1170 h1         1 67H       0.013033
     41 H16          7.6140     0.6980     3.3320 h1         1 67H       0.013033
     42 H17         -1.3650     3.6170    -1.3830 ha         1 67H       0.122500
     43 H18         -1.7740     5.5690     0.0640 ha         1 67H       0.114500
     44 H19         -0.5440     3.3070     3.4760 ha         1 67H       0.114500
     45 H20         -0.1340     1.3500     2.0350 ha         1 67H       0.122500
@<TRIPOS>BOND
     1     1     2 1   
     2     1     8 1   
     3     1    27 1   
     4     1    28 1   
     5     2     3 2   
     6     2    14 1   
     7     3     5 1   
     8     3    29 1   
     9     4     6 2   
    10     4    13 1   
    11     4    15 1   
    12     5    11 2   
    13     5    12 1   
    14     6    12 1   
    15     6    16 1   
    16     7    12 1   
    17     7    13 1   
    18     7    14 2   
    19     8    10 1   
    20     8    20 1   
    21     9    10 1   
    22     9    30 1   
    23     9    31 1   
    24     9    32 1   
    25    10    33 1   
    26    10    34 1   
    27    15    35 1   
    28    15    36 1   
    29    15    37 1   
    30    16    17 2   
    31    16    18 1   
    32    18    19 1   
    33    18    38 1   
    34    19    39 1   
    35    19    40 1   
    36    19    41 1   
    37    20    21 ar  
    38    20    25 ar  
    39    21    22 ar  
    40    21    42 1   
    41    22    23 ar  
    42    22    43 1   
    43    23    24 ar  
    44    23    26 1   
    45    24    25 ar  
    46    24    44 1   
    47    25    45 1   
@<TRIPOS>SUBSTRUCTURE
     1 67H         1 TEMP              0 ****  ****    0 ROOT
