@<TRIPOS>MOLECULE
67J
   43    45     1     0     0
SMALL
bcc


@<TRIPOS>ATOM
      1 C4           0.0000     0.0000     0.0000 c          1 67J       0.614700
      2 C14          4.9710     0.0000     1.2220 cc         1 67J       0.161400
      3 C6           0.8500     0.0000     1.1950 cc         1 67J      -0.271900
      4 C11          2.9610    -0.0010    -0.0670 c          1 67J       0.481500
      5 C7           0.3100     0.0000     2.4260 cd         1 67J       0.060600
      6 C9           2.9090    -0.0000     2.2640 cd         1 67J       0.045600
      7 C13          4.3570     0.0000     0.0000 cd         1 67J      -0.308200
      8 N3          -0.4510    -1.1640    -0.5060 ns         1 67J      -0.173900
      9 C2          -1.2130    -1.1730    -1.7570 c3         1 67J       0.049000
     10 O5          -0.3020     1.0520    -0.5320 o          1 67J      -0.612100
     11 S8           1.6840     0.0000     3.5440 ss         1 67J      -0.248800
     12 N10          2.2290    -0.0000     1.0870 n          1 67J       0.401800
     13 O12          2.3990     0.0000    -1.1500 o          1 67J      -0.657500
     14 N15          4.2270    -0.0000     2.3220 nc         1 67J      -0.211600
     15 C17          6.9740     1.4080     1.4710 ca         1 67J      -0.132300
     16 C18          7.3770     2.1220     0.3600 ca         1 67J      -0.036000
     17 C19          7.8360     3.4190     0.5000 ca         1 67J      -0.118000
     18 C20          7.8910     4.0030     1.7520 ca         1 67J      -0.021000
     19 C21          7.4870     3.2900     2.8650 ca         1 67J      -0.244300
     20 C22          7.0220     1.9930     2.7250 ca         1 67J       0.189900
     21 F23          6.6270     1.2970     3.8130 f          1 67J      -0.109900
     22 C24          7.5410     3.9290     4.2290 c3         1 67J       0.651200
     23 F25          6.2540     3.9710     4.7760 f          1 67J      -0.204967
     24 F26          8.3770     3.1780     5.0620 f          1 67J      -0.204967
     25 F27          8.0410     5.2310     4.1150 f          1 67J      -0.204967
     26 C28         -1.1550     0.0020     2.7800 c3         1 67J       0.110200
     27 H1           4.9470     0.0000    -0.9080 ha         1 67J       0.149000
     28 H3          -0.2340    -2.0270    -0.0460 hn         1 67J       0.171500
     29 H4          -2.2190    -3.0210    -1.3160 hc         1 67J       0.008367
     30 H5          -2.1560    -2.6190    -3.0380 hc         1 67J       0.008367
     31 H6          -0.7070    -3.2120    -2.2140 hc         1 67J       0.008367
     32 H7          -0.6060    -0.7600    -2.5530 h1         1 67J       0.030700
     33 H8          -2.1090    -0.5760    -1.6390 h1         1 67J       0.030700
     34 H9           6.7780    -0.5910     2.1790 hc         1 67J       0.039700
     35 H10          6.8920    -0.4420     0.4200 hc         1 67J       0.039700
     36 H11          7.3340     1.6670    -0.6220 ha         1 67J       0.114000
     37 H12          8.1520     3.9790    -0.3720 ha         1 67J       0.116000
     38 H13          8.2530     5.0180     1.8610 ha         1 67J       0.125000
     39 H14         -1.6000    -0.9390     2.4790 hc         1 67J       0.023367
     40 H15         -1.6500     0.8160     2.2650 hc         1 67J       0.023367
     41 H16         -1.2680     0.1290     3.8500 hc         1 67J       0.023367
     42 C16          6.4740    -0.0060     1.3190 c3         1 67J       0.089100
     43 C1          -1.6020    -2.6110    -2.1070 c3         1 67J      -0.007100
@<TRIPOS>BOND
     1     1     3 1   
     2     1     8 1   
     3     1    10 2   
     4     2     7 2   
     5     2    14 1   
     6     2    42 1   
     7     3     5 2   
     8     3    12 1   
     9     4     7 1   
    10     4    12 1   
    11     4    13 2   
    12     5    11 1   
    13     5    26 1   
    14     6    11 1   
    15     6    12 1   
    16     6    14 2   
    17     7    27 1   
    18     8     9 1   
    19     8    28 1   
    20     9    32 1   
    21     9    33 1   
    22     9    43 1   
    23    15    16 ar  
    24    15    20 ar  
    25    15    42 1   
    26    16    17 ar  
    27    16    36 1   
    28    17    18 ar  
    29    17    37 1   
    30    18    19 ar  
    31    18    38 1   
    32    19    20 ar  
    33    19    22 1   
    34    20    21 1   
    35    22    23 1   
    36    22    24 1   
    37    22    25 1   
    38    26    39 1   
    39    26    40 1   
    40    26    41 1   
    41    29    43 1   
    42    30    43 1   
    43    31    43 1   
    44    34    42 1   
    45    35    42 1   
@<TRIPOS>SUBSTRUCTURE
     1 67J         1 TEMP              0 ****  ****    0 ROOT
