@<TRIPOS>MOLECULE
molecule
   43    45     1     0     0
SMALL
bcc


@<TRIPOS>ATOM
      1 C4           0.0000     0.0000     0.0000 c          1 67J       0.696700
      2 C14          4.9710     0.0000     1.2220 cc         1 67J       0.217400
      3 C6           0.8500     0.0000     1.1950 cd         1 67J      -0.101900
      4 C11          2.9610    -0.0010    -0.0670 c          1 67J       0.583500
      5 C7           0.3100     0.0000     2.4260 cc         1 67J      -0.013400
      6 C9           2.9090    -0.0000     2.2640 cd         1 67J       0.212600
      7 C13          4.3570     0.0000     0.0000 cd         1 67J      -0.332200
      8 N3          -0.4510    -1.1640    -0.5060 ns         1 67J      -0.569900
      9 C2          -1.2130    -1.1730    -1.7570 c3         1 67J       0.113000
     10 O5          -0.3020     1.0520    -0.5320 o          1 67J      -0.569100
     11 S8           1.6840     0.0000     3.5440 ss         1 67J      -0.103800
     12 N10          2.2290    -0.0000     1.0870 n          1 67J      -0.075200
     13 O12          2.3990     0.0000    -1.1500 o          1 67J      -0.612500
     14 N15          4.2270    -0.0000     2.3220 nc         1 67J      -0.348600
     15 C17          6.9740     1.4080     1.4710 ca         1 67J      -0.132300
     16 C18          7.3770     2.1220     0.3600 ca         1 67J      -0.067000
     17 C19          7.8360     3.4190     0.5000 ca         1 67J      -0.149000
     18 C20          7.8910     4.0030     1.7520 ca         1 67J      -0.056000
     19 C21          7.4870     3.2900     2.8650 ca         1 67J      -0.225300
     20 C22          7.0220     1.9930     2.7250 ca         1 67J       0.199900
     21 F23          6.6270     1.2970     3.8130 f          1 67J      -0.110900
     22 C24          7.5410     3.9290     4.2290 c3         1 67J       0.681200
     23 F25          6.2540     3.9710     4.7760 f          1 67J      -0.219300
     24 F26          8.3770     3.1780     5.0620 f          1 67J      -0.219300
     25 F27          8.0410     5.2310     4.1150 f          1 67J      -0.219300
     26 C28         -1.1550     0.0020     2.7800 c3         1 67J      -0.006800
     27 H1           4.9470     0.0000    -0.9080 ha         1 67J       0.170000
     28 H3          -0.2340    -2.0270    -0.0460 hn         1 67J       0.314500
     29 H4          -2.2190    -3.0210    -1.3160 hc         1 67J       0.043033
     30 H5          -2.1560    -2.6190    -3.0380 hc         1 67J       0.043033
     31 H6          -0.7070    -3.2120    -2.2140 hc         1 67J       0.043033
     32 H7          -0.6060    -0.7600    -2.5530 h1         1 67J       0.058700
     33 H8          -2.1090    -0.5760    -1.6390 h1         1 67J       0.058700
     34 H9           6.7780    -0.5910     2.1790 hc         1 67J       0.077200
     35 H10          6.8920    -0.4420     0.4200 hc         1 67J       0.077200
     36 H11          7.3340     1.6670    -0.6220 ha         1 67J       0.144000
     37 H12          8.1520     3.9790    -0.3720 ha         1 67J       0.145000
     38 H13          8.2530     5.0180     1.8610 ha         1 67J       0.157000
     39 H14         -1.6000    -0.9390     2.4790 hc         1 67J       0.062033
     40 H15         -1.6500     0.8160     2.2650 hc         1 67J       0.062033
     41 H16         -1.2680     0.1290     3.8500 hc         1 67J       0.062033
     42 C16          6.4740    -0.0060     1.3190 c3         1 67J       0.022100
     43 C1          -1.6020    -2.6110    -2.1070 c3         1 67J      -0.113100
@<TRIPOS>BOND
     1    24    22 1
     2    23    22 1
     3    22    25 1
     4    22    19 1
     5    21    20 1
     6    19    20 ar
     7    19    18 ar
     8    20    15 ar
     9    18    17 ar
    10    15    42 1
    11    15    16 ar
    12    17    16 ar
    13    42     2 1
    14    14     2 1
    15    14     6 2
    16     2     7 2
    17     6    11 1
    18     6    12 1
    19    11     5 1
    20     7     4 1
    21    43     9 1
    22    12     4 1
    23    12     3 1
    24     4    13 2
    25     5     3 2
    26     5    26 1
    27     8     9 1
    28     8     1 1
    29     3     1 1
    30     1    10 2
    31     7    27 1
    32     8    28 1
    33    43    29 1
    34    43    30 1
    35    43    31 1
    36     9    32 1
    37     9    33 1
    38    42    34 1
    39    42    35 1
    40    16    36 1
    41    17    37 1
    42    18    38 1
    43    26    39 1
    44    26    40 1
    45    26    41 1
@<TRIPOS>SUBSTRUCTURE
     1 67J         1 TEMP              0 ****  ****    0 ROOT
