@<TRIPOS>MOLECULE
molecule
   23    24     1     0     0
SMALL
bcc


@<TRIPOS>ATOM
      1 CAC          0.0000     0.0000     0.0000 ca         1 67K      -0.202300
      2 CAB          1.3850     0.0000     0.0000 ca         1 67K      -0.101000
      3 CAA          2.0470     0.0000     1.2190 ca         1 67K      -0.244300
      4 CAN         -4.8540     0.0010    -1.2410 c          1 67K       0.470400
      5 CAG         -2.1610    -0.0000     1.2340 cp         1 67K       0.381300
      6 CAK         -4.1550     0.0010     0.0580 ca         1 67K       0.341800
      7 CAH         -2.8350     0.0060     2.4540 ca         1 67K      -0.214300
      8 OAO         -4.2160     0.0010    -2.2720 o          1 67K      -0.483100
      9 NAL         -2.8270     0.0010     0.0910 nb         1 67K      -0.646000
     10 CAJ         -4.8960     0.0120     1.2390 ca         1 67K      -0.240300
     11 CAI         -4.2260     0.0120     2.4600 ca         1 67K       0.124100
     12 OAM         -4.9150     0.0220     3.6310 oh         1 67K      -0.514100
     13 CAD         -0.6760     0.0000     1.2160 cp         1 67K       0.362300
     14 NAE         -0.0060    -0.0010     2.3610 nb         1 67K      -0.690000
     15 CAF          1.3100     0.0000     2.3900 ca         1 67K       0.417200
     16 H1          -0.5490     0.0000    -0.9340 ha         1 67K       0.169000
     17 H2           1.9390    -0.0000    -0.9310 ha         1 67K       0.143000
     18 H3           3.1290     0.0000     1.2540 ha         1 67K       0.139000
     19 H4          -5.9360     0.0010    -1.2740 h4         1 67K       0.010200
     20 H5          -2.2830     0.0060     3.3860 ha         1 67K       0.176000
     21 H6          -5.9780     0.0160     1.2080 ha         1 67K       0.149000
     22 H7          -5.0820    -0.8640     3.9060 ho         1 67K       0.428000
     23 H8           1.8240    -0.0000     3.3440 h4         1 67K       0.025100
@<TRIPOS>BOND
     1    12    11 1   
     2    11    10 ar  
     3    11     7 ar  
     4    10     6 ar  
     5     7     5 ar  
     6     6     4 1   
     7     6     9 ar  
     8     5     9 ar  
     9     5    13 1   
    10     1    13 ar  
    11     1     2 ar  
    12     4     8 2   
    13    13    14 ar  
    14     2     3 ar  
    15    14    15 ar  
    16     3    15 ar  
    17     1    16 1   
    18     2    17 1   
    19     3    18 1   
    20     4    19 1   
    21     7    20 1   
    22    10    21 1   
    23    12    22 1   
    24    15    23 1   
@<TRIPOS>SUBSTRUCTURE
     1 67K         1 TEMP              0 ****  ****    0 ROOT
