@<TRIPOS>MOLECULE
molecule
   25    26     1     0     0
SMALL
bcc


@<TRIPOS>ATOM
      1 CAC          0.0000     0.0000     0.0000 ca         1 67L      -0.209300
      2 CAB          1.3850     0.0000     0.0000 ca         1 67L      -0.102000
      3 CAA          2.0470     0.0000     1.2190 ca         1 67L      -0.248300
      4 CAF          1.3110     0.0010     2.3910 ca         1 67L       0.419200
      5 NAE         -0.0060     0.0010     2.3610 nb         1 67L      -0.689000
      6 CAD         -0.6770     0.0060     1.2170 cp         1 67L       0.370300
      7 CAG         -2.1610     0.0050     1.2330 cp         1 67L       0.386300
      8 NAL         -2.8310     0.0060     0.0880 nb         1 67L      -0.705000
      9 CAH         -2.8350    -0.0020     2.4490 ca         1 67L      -0.239300
     10 CAI         -4.2270    -0.0030     2.4470 ca         1 67L       0.130100
     11 OAM         -4.9230    -0.0090     3.6130 oh         1 67L      -0.516100
     12 CAJ         -4.8880     0.0030     1.2210 ca         1 67L      -0.245300
     13 CAK         -4.1480     0.0050     0.0550 ca         1 67L       0.433600
     14 CAN         -4.8580     0.0060    -1.2750 c3         1 67L       0.096100
     15 OAO         -6.2710     0.0040    -1.0610 oh         1 67L      -0.614800
     16 H1          -0.5490     0.0020    -0.9340 ha         1 67L       0.161000
     17 H2           1.9380    -0.0030    -0.9310 ha         1 67L       0.139000
     18 H3           3.1290     0.0000     1.2530 ha         1 67L       0.138000
     19 H4           1.8240    -0.0010     3.3440 h4         1 67L       0.024100
     20 H5          -2.2950    -0.1970     3.3670 ha         1 67L       0.173000
     21 H6          -5.0660     0.8780     3.8990 ho         1 67L       0.427000
     22 H7          -5.9710     0.0030     1.1830 ha         1 67L       0.170000
     23 H8          -4.5790     0.8910    -1.8330 h1         1 67L       0.044700
     24 H9          -4.5760    -0.8780    -1.8350 h1         1 67L       0.044700
     25 H10         -6.7150     0.0040    -1.8920 ho         1 67L       0.411000
@<TRIPOS>BOND
     1    15    14 1   
     2    14    13 1   
     3    13     8 ar  
     4    13    12 ar  
     5     8     7 ar  
     6    12    10 ar  
     7     5     4 ar  
     8     5     6 ar  
     9     7     6 1   
    10     7     9 ar  
    11    10     9 ar  
    12    10    11 1   
    13     4     3 ar  
    14     6     1 ar  
    15     3     2 ar  
    16     1     2 ar  
    17     1    16 1   
    18     2    17 1   
    19     3    18 1   
    20     4    19 1   
    21     9    20 1   
    22    11    21 1   
    23    12    22 1   
    24    14    23 1   
    25    14    24 1   
    26    15    25 1   
@<TRIPOS>SUBSTRUCTURE
     1 67L         1 TEMP              0 ****  ****    0 ROOT
