@<TRIPOS>MOLECULE
molecule
   19    20     1     0     0
SMALL
bcc


@<TRIPOS>ATOM
      1 C4           0.0000     0.0000     0.0000 cc         1 67N      -0.164200
      2 C5           1.4610     0.0000     0.0000 cc         1 67N      -0.064800
      3 C6           2.4500     0.0000     1.0050 cc         1 67N      -0.207000
      4 C11          1.3740    -0.0040    -2.4160 c          1 67N       0.729100
      5 C7           3.6540    -0.0010     0.3970 cd         1 67N      -0.117300
      6 C10          2.1320    -0.0020    -1.2300 cd         1 67N      -0.190900
      7 N2           0.0300    -0.0140    -2.3620 n          1 67N      -0.333000
      8 C3          -0.6510    -0.0070    -1.1790 cd         1 67N      -0.036400
      9 C1          -0.7290    -0.0270    -3.6160 c3         1 67N       0.093300
     10 N8           3.4800    -0.0030    -0.9540 na         1 67N      -0.124100
     11 O12          1.9390    -0.0050    -3.4970 o          1 67N      -0.673500
     12 H1          -0.5510     0.0060     0.9330 ha         1 67N       0.147000
     13 H2           2.2740     0.0010     2.0740 ha         1 67N       0.153000
     14 H3           4.6110    -0.0010     0.9040 h4         1 67N       0.169000
     15 H4          -1.7340    -0.0150    -1.1880 h4         1 67N       0.151000
     16 H5          -0.4900     0.8590    -4.1920 h1         1 67N       0.052367
     17 H6          -0.4670    -0.9100    -4.1870 h1         1 67N       0.052367
     18 H7          -1.7890    -0.0410    -3.3970 h1         1 67N       0.052367
     19 H9           4.2140    -0.0040    -1.6350 hn         1 67N       0.311700
@<TRIPOS>BOND
     1     9     7 1   
     2     8     7 1   
     3     8     1 2   
     4     7     4 1   
     5     1     2 1   
     6     4    11 2   
     7     4     6 1   
     8     2     6 2   
     9     2     3 1   
    10     6    10 1   
    11     3     5 2   
    12    10     5 1   
    13     1    12 1   
    14     3    13 1   
    15     5    14 1   
    16     8    15 1   
    17     9    16 1   
    18     9    17 1   
    19     9    18 1   
    20    10    19 1   
@<TRIPOS>SUBSTRUCTURE
     1 67N         1 TEMP              0 ****  ****    0 ROOT
