@<TRIPOS>MOLECULE
molecule
   48    50     1     0     0
SMALL
bcc


@<TRIPOS>ATOM
      1 C01          0.0000     0.0000     0.0000 ca         1 67P      -0.101000
      2 C02          1.3840     0.0000     0.0000 ca         1 67P      -0.136500
      3 C03          2.0760     0.0000     1.1930 ca         1 67P      -0.083000
      4 C04          1.3790    -0.0020     2.4020 ca         1 67P      -0.145600
      5 C05         -0.0170    -0.0030     2.3950 ca         1 67P      -0.083000
      6 C06         -0.6980     0.0040     1.1950 ca         1 67P      -0.136500
      7 C07          2.1140    -0.0080     3.6850 c          1 67P       0.676700
      8 O08          1.5040    -0.0140     4.7360 o          1 67P      -0.619100
      9 N09          3.4630    -0.0090     3.6870 ns         1 67P      -0.429500
     10 N10          4.1600    -0.0150     4.9020 ns         1 67P      -0.427500
     11 C11          5.5080    -0.0140     4.9050 c          1 67P       0.672700
     12 O12          6.1180    -0.0080     3.8540 o          1 67P      -0.615100
     13 C13          6.2440    -0.0210     6.1880 ca         1 67P      -0.133600
     14 C14          5.5460    -0.0340     7.3960 ca         1 67P      -0.085500
     15 C15          6.2390    -0.0410     8.5890 ca         1 67P      -0.121000
     16 C16          7.6220    -0.0350     8.5890 ca         1 67P      -0.084300
     17 C17          8.3200    -0.0220     7.3950 ca         1 67P      -0.121000
     18 C18          7.6400    -0.0210     6.1950 ca         1 67P      -0.085500
     19 C19          8.3730    -0.0410     9.8970 c3         1 67P       0.278100
     20 N20          8.6220    -1.4240    10.3090 n7         1 67P      -0.910100
     21 S21          9.7340    -1.7460    11.4940 sy         1 67P       1.423200
     22 O22          9.7180    -3.1540    11.6860 o          1 67P      -0.627800
     23 O23         10.9070    -1.0220    11.1520 o          1 67P      -0.627800
     24 C24          9.1260    -1.0340    12.9870 ca         1 67P      -0.328500
     25 C25          9.4530     0.2680    13.3120 ca         1 67P      -0.007000
     26 C26          8.9770     0.8290    14.4830 ca         1 67P      -0.183000
     27 C27          8.1730     0.0860    15.3290 ca         1 67P       0.194900
     28 C28          7.8450    -1.2200    15.0020 ca         1 67P      -0.040600
     29 C29          8.3180    -1.7770    13.8270 ca         1 67P       0.004000
     30 Cl           6.8360    -2.1550    16.0620 cl         1 67P      -0.072400
     31 F31          7.7070     0.6320    16.4740 f          1 67P      -0.117900
     32 H1          -0.5390     0.0030    -0.9400 ha         1 67P       0.135000
     33 H2           1.9240    -0.0010    -0.9390 ha         1 67P       0.138000
     34 H3           3.1590     0.0000     1.1910 ha         1 67P       0.144000
     35 H4          -0.5640    -0.0020     3.3290 ha         1 67P       0.144000
     36 H5          -1.7810     0.0040     1.1880 ha         1 67P       0.138000
     37 H6           3.9650     0.0140     2.8220 hn         1 67P       0.365500
     38 H7           3.6580    -0.0190     5.7680 hn         1 67P       0.364500
     39 H8           4.4620    -0.0380     7.3980 ha         1 67P       0.148500
     40 H9           5.6990    -0.0510     9.5280 ha         1 67P       0.143500
     41 H10          9.4030    -0.0190     7.4020 ha         1 67P       0.143500
     42 H11          8.1880    -0.0110     5.2600 ha         1 67P       0.148500
     43 H12          7.7840     0.4620    10.6540 h1         1 67P       0.054700
     44 H13          9.3180     0.4750     9.7730 h1         1 67P       0.054700
     45 H14          8.0870    -2.1700     9.9080 hn         1 67P       0.462800
     46 H15         10.0830     0.8500    12.6500 ha         1 67P       0.160000
     47 H16          9.2340     1.8500    14.7390 ha         1 67P       0.159000
     48 H17          8.0630    -2.7980    13.5700 ha         1 67P       0.171000
@<TRIPOS>BOND
     1    15    14 ar
     2    15    16 ar
     3    14    13 ar
     4    12    11 2
     5    20    19 1
     6    20    21 1
     7    25    26 ar
     8    25    24 ar
     9    19    16 1
    10    16    17 ar
    11    26    27 ar
    12    23    21 2
    13    13    11 1
    14    13    18 ar
    15    11    10 1
    16    21    24 1
    17    21    22 2
    18    24    29 ar
    19    17    18 ar
    20    27    31 1
    21    27    28 ar
    22    10     9 1
    23    29    28 ar
    24     9     7 1
    25    28    30 1
    26     7     8 2
    27     7     4 1
    28     4     5 ar
    29     4     3 ar
    30     5     6 ar
    31     3     2 ar
    32     6     1 ar
    33     2     1 ar
    34     1    32 1
    35     2    33 1
    36     3    34 1
    37     5    35 1
    38     6    36 1
    39     9    37 1
    40    10    38 1
    41    14    39 1
    42    15    40 1
    43    17    41 1
    44    18    42 1
    45    19    43 1
    46    19    44 1
    47    20    45 1
    48    25    46 1
    49    26    47 1
    50    29    48 1
@<TRIPOS>SUBSTRUCTURE
     1 67P         1 TEMP              0 ****  ****    0 ROOT
