@<TRIPOS>MOLECULE
67Q
   49    51     1     0     0
SMALL
bcc


@<TRIPOS>ATOM
      1 C10          0.0000     0.0000     0.0000 ca         1 67Q       0.251300
      2 C11          1.3880     0.0000     0.0000 ca         1 67Q       0.268300
      3 C13          1.3850    -0.0010     2.2930 ca         1 67Q       0.207500
      4 C14         -0.0100    -0.0120     2.2890 ca         1 67Q       0.344900
      5 C16          2.1240    -0.0070     3.5760 c          1 67Q       0.491600
      6 C22          8.0730     0.0410     3.6890 ce         1 67Q       0.526600
      7 C24          6.7960     0.0110     5.5920 c3         1 67Q       0.163000
      8 C25          9.2740     0.0600     2.7780 c3         1 67Q      -0.011400
      9 C26          2.1400     0.0020    -1.3060 c3         1 67Q      -0.039400
     10 C01         -0.5550     0.1710    -6.7400 ca         1 67Q       0.131900
     11 C02         -0.2150    -1.1350    -6.4200 ca         1 67Q       0.050900
     12 C03         -0.6880    -1.7050    -5.2520 ca         1 67Q      -0.003000
     13 C04         -1.5000    -0.9740    -4.4050 ca         1 67Q      -0.156500
     14 C05         -1.8380     0.3290    -4.7230 ca         1 67Q       0.015000
     15 C06         -1.3670     0.9010    -5.8890 ca         1 67Q      -0.143000
     16 S07         -2.1030    -1.7010    -2.9170 sy         1 67Q       1.047200
     17 N08         -0.9930    -1.3810    -1.7300 n7         1 67Q      -0.578100
     18 C09         -0.7500    -0.0010    -1.3060 c3         1 67Q       0.178500
     19 N12          2.0490     0.0000     1.1410 nb         1 67Q      -0.534000
     20 N15         -0.6640    -0.0070     1.1410 nb         1 67Q      -0.526000
     21 O17          1.5150    -0.0220     4.6290 o          1 67Q      -0.650100
     22 N18          3.4720     0.0030     3.5780 ns         1 67Q      -0.199900
     23 C19          4.2030    -0.0030     4.8480 c3         1 67Q       0.083200
     24 C20          5.6840     0.0110     4.5740 c2         1 67Q      -0.247400
     25 S21          6.3830     0.0290     3.1780 sx         1 67Q      -0.365600
     26 N23          8.1010     0.0270     4.9590 n2         1 67Q      -0.486900
     27 O27         -3.2790    -0.9840    -2.5690 o          1 67Q      -0.576300
     28 O28         -2.0810    -3.1070    -3.1200 o          1 67Q      -0.576300
     29 F30         -0.0890     0.7310    -7.8770 f          1 67Q      -0.109900
     30 H1          -0.5560    -0.0180     3.2250 h4         1 67Q       0.018100
     31 H3           6.6980     0.8880     6.2200 h1         1 67Q       0.056700
     32 H5           9.2640    -0.8230     2.1500 hc         1 67Q       0.011033
     33 H6           9.2420     0.9460     2.1560 hc         1 67Q       0.011033
     34 H7          10.1790     0.0690     3.3740 hc         1 67Q       0.011033
     35 H8           3.2050     0.0140    -1.1080 hc         1 67Q       0.019700
     36 H9           1.8690     0.8820    -1.8770 hc         1 67Q       0.019700
     37 H10          1.8870    -0.8870    -1.8700 hc         1 67Q       0.019700
     38 H11         -0.4240    -2.7260    -5.0010 ha         1 67Q       0.142000
     39 H12         -2.4740     0.9010    -4.0580 ha         1 67Q       0.131000
     40 H13         -1.6330     1.9220    -6.1380 ha         1 67Q       0.130000
     41 H14         -0.5110    -2.1350    -1.2810 hn         1 67Q       0.354800
     42 H15         -0.1630     0.5100    -2.0600 h1         1 67Q       0.028700
     43 H16         -1.6970     0.5100    -1.1790 h1         1 67Q       0.028700
     44 H17          3.9730     0.0380     2.7120 hn         1 67Q       0.216500
     45 H18          3.9480    -0.8950     5.4070 h1         1 67Q       0.048200
     46 H19          3.9340     0.8740     5.4240 h1         1 67Q       0.048200
     47 H2           5.8580     0.0360     1.9590 hs         1 67Q       0.199000
     48 H4           6.7120    -0.8800     6.2030 h1         1 67Q       0.056700
     49 F29          0.5780    -1.8490    -7.2490 f          1 67Q      -0.110900
@<TRIPOS>BOND
     1     1     2 ar  
     2     1    18 1   
     3     1    20 ar  
     4     2     9 1   
     5     2    19 ar  
     6     3     4 ar  
     7     3     5 1   
     8     3    19 ar  
     9     4    20 ar  
    10     4    30 1   
    11     5    21 2   
    12     5    22 1   
    13     6     8 1   
    14     6    25 1   
    15     6    26 2   
    16     7    24 1   
    17     7    26 1   
    18     7    31 1   
    19     7    48 1   
    20     8    32 1   
    21     8    33 1   
    22     8    34 1   
    23     9    35 1   
    24     9    36 1   
    25     9    37 1   
    26    10    11 ar  
    27    10    15 ar  
    28    10    29 1   
    29    11    12 ar  
    30    11    49 1   
    31    12    13 ar  
    32    12    38 1   
    33    13    14 ar  
    34    13    16 1   
    35    14    15 ar  
    36    14    39 1   
    37    15    40 1   
    38    16    17 1   
    39    16    27 2   
    40    16    28 2   
    41    17    18 1   
    42    17    41 1   
    43    18    42 1   
    44    18    43 1   
    45    22    23 1   
    46    22    44 1   
    47    23    24 1   
    48    23    45 1   
    49    23    46 1   
    50    24    25 2   
    51    25    47 1   
@<TRIPOS>SUBSTRUCTURE
     1 67Q         1 TEMP              0 ****  ****    0 ROOT
