@<TRIPOS>MOLECULE
67R
   44    46     1     0     0
SMALL
bcc


@<TRIPOS>ATOM
      1 C01          0.0000     0.0000     0.0000 ca         1 67R       0.163900
      2 C02          1.3860     0.0000     0.0000 ca         1 67R      -0.114600
      3 C03          2.0760     0.0000     1.1980 ca         1 67R       0.034000
      4 C04          1.3850     0.0020     2.3950 ca         1 67R      -0.172500
      5 C05          0.0020     0.0020     2.3950 ca         1 67R       0.027000
      6 C06         -0.6910     0.0020     1.1990 ca         1 67R      -0.156000
      7 C07          1.3680     2.4420     4.6640 c3         1 67R       0.187500
      8 C08          1.8550     3.6870     5.3590 ca         1 67R       0.247300
      9 C09          2.0900     4.8430     4.6270 ca         1 67R       0.293900
     10 C10          2.7190     5.9270     6.5460 ca         1 67R       0.203500
     11 C11          2.4770     4.7680     7.2800 ca         1 67R       0.353900
     12 C12          3.1970     7.1520     7.2290 c          1 67R       0.486600
     13 C13          3.9020     9.4840     7.1940 c3         1 67R       0.160300
     14 C14          4.0850    10.5860     6.1820 cc         1 67R      -0.154700
     15 C15          3.1560    11.4730     5.8090 cd         1 67R       0.382200
     16 C16          4.7830    12.2410     4.4980 cc         1 67R       0.451700
     17 C17          5.4290    13.1400     3.4780 c3         1 67R      -0.006400
     18 N18          2.5110     1.5830     4.3440 n7         1 67R      -0.579100
     19 N19          2.5140     5.9330     5.2310 nb         1 67R      -0.540000
     20 N20          2.0510     3.6770     6.6660 nb         1 67R      -0.530000
     21 O21          3.3780     7.1460     8.4310 o          1 67R      -0.646100
     22 N22          3.4300     8.2740     6.5180 ns         1 67R      -0.176900
     23 S23          5.5600    10.9370     5.2860 ss         1 67R      -0.293300
     24 N24          3.5610    12.3410     4.9040 nd         1 67R      -0.572000
     25 S25          2.2660     0.0010     3.9210 sy         1 67R       1.047200
     26 O26          1.3830    -0.5430     4.8930 o          1 67R      -0.577300
     27 O27          3.5480    -0.5440     3.6430 o          1 67R      -0.577300
     28 Cl           2.2540    -0.0030    -1.5040 cl         1 67R       0.022600
     29 F29         -0.6750     0.0050    -1.1690 f          1 67R      -0.114900
     30 H1           3.1590    -0.0000     1.1990 ha         1 67R       0.137000
     31 H2          -0.5390     0.0030     3.3340 ha         1 67R       0.129000
     32 H3          -1.7740     0.0020     1.2010 ha         1 67R       0.129000
     33 H4           0.8560     2.7160     3.7500 h1         1 67R       0.025700
     34 H5           0.6860     1.9080     5.3150 h1         1 67R       0.025700
     35 H6           1.9230     4.8480     3.5570 h4         1 67R      -0.005900
     36 H7           2.6380     4.7600     8.3520 h4         1 67R       0.019100
     37 H8           4.8490     9.2800     7.6800 h1         1 67R       0.035700
     38 H9           3.1740     9.7910     7.9350 h1         1 67R       0.035700
     39 H10          2.1510    11.4730     6.2130 h4         1 67R       0.005100
     40 H11          5.7770    12.5460     2.6410 hc         1 67R       0.021033
     41 H12          6.2680    13.6550     3.9290 hc         1 67R       0.021033
     42 H13          4.7060    13.8670     3.1280 hc         1 67R       0.021033
     43 H14          3.4420     1.9470     4.4020 hn         1 67R       0.353800
     44 H15          3.3130     8.2690     5.5240 hn         1 67R       0.196500
@<TRIPOS>BOND
     1     1     2 ar  
     2     1     6 ar  
     3     1    29 1   
     4     2     3 ar  
     5     2    28 1   
     6     3     4 ar  
     7     3    30 1   
     8     4     5 ar  
     9     4    25 1   
    10     5     6 ar  
    11     5    31 1   
    12     6    32 1   
    13     7     8 1   
    14     7    18 1   
    15     7    33 1   
    16     7    34 1   
    17     8     9 ar  
    18     8    20 ar  
    19     9    19 ar  
    20     9    35 1   
    21    10    11 ar  
    22    10    12 1   
    23    10    19 ar  
    24    11    20 ar  
    25    11    36 1   
    26    12    21 2   
    27    12    22 1   
    28    13    14 1   
    29    13    22 1   
    30    13    37 1   
    31    13    38 1   
    32    14    15 2   
    33    14    23 1   
    34    15    24 1   
    35    15    39 1   
    36    16    17 1   
    37    16    23 1   
    38    16    24 2   
    39    17    40 1   
    40    17    41 1   
    41    17    42 1   
    42    18    25 1   
    43    18    43 1   
    44    22    44 1   
    45    25    26 2   
    46    25    27 2   
@<TRIPOS>SUBSTRUCTURE
     1 67R         1 TEMP              0 ****  ****    0 ROOT
