@<TRIPOS>MOLECULE
molecule
   44    46     1     0     0
SMALL
bcc


@<TRIPOS>ATOM
      1 C01          0.0000     0.0000     0.0000 ca         1 67R       0.195900
      2 C02          1.3860     0.0000     0.0000 ca         1 67R      -0.041600
      3 C03          2.0760     0.0000     1.1980 ca         1 67R       0.005000
      4 C04          1.3850     0.0020     2.3950 ca         1 67R      -0.329500
      5 C05          0.0020     0.0020     2.3950 ca         1 67R      -0.008000
      6 C06         -0.6910     0.0020     1.1990 ca         1 67R      -0.184000
      7 C07          1.3680     2.4420     4.6640 c3         1 67R       0.192500
      8 C08          1.8550     3.6870     5.3590 ca         1 67R       0.298300
      9 C09          2.0900     4.8430     4.6270 ca         1 67R       0.304900
     10 C10          2.7190     5.9270     6.5460 ca         1 67R       0.252500
     11 C11          2.4770     4.7680     7.2800 ca         1 67R       0.359900
     12 C12          3.1970     7.1520     7.2290 c          1 67R       0.574600
     13 C13          3.9020     9.4840     7.1940 c3         1 67R       0.200300
     14 C14          4.0850    10.5860     6.1820 cc         1 67R      -0.190700
     15 C15          3.1560    11.4730     5.8090 cd         1 67R       0.391200
     16 C16          4.7830    12.2410     4.4980 cc         1 67R       0.459700
     17 C17          5.4290    13.1400     3.4780 c3         1 67R      -0.118400
     18 N18          2.5110     1.5830     4.3440 n7         1 67R      -0.910100
     19 N19          2.5140     5.9330     5.2310 nb         1 67R      -0.646000
     20 N20          2.0510     3.6770     6.6660 nb         1 67R      -0.638000
     21 O21          3.3780     7.1460     8.4310 o          1 67R      -0.602100
     22 N22          3.4300     8.2740     6.5180 ns         1 67R      -0.564900
     23 S23          5.5600    10.9370     5.2860 ss         1 67R      -0.197300
     24 N24          3.5610    12.3410     4.9040 nd         1 67R      -0.688000
     25 S25          2.2660     0.0010     3.9210 sy         1 67R       1.426200
     26 O26          1.3830    -0.5430     4.8930 o          1 67R      -0.623300
     27 O27          3.5480    -0.5440     3.6430 o          1 67R      -0.623300
     28 Cl           2.2540    -0.0030    -1.5040 cl         1 67R      -0.072400
     29 F29         -0.6750     0.0050    -1.1690 f          1 67R      -0.116900
     30 H1           3.1590    -0.0000     1.1990 ha         1 67R       0.171000
     31 H2          -0.5390     0.0030     3.3340 ha         1 67R       0.160000
     32 H3          -1.7740     0.0020     1.2010 ha         1 67R       0.160000
     33 H4           0.8560     2.7160     3.7500 h1         1 67R       0.065200
     34 H5           0.6860     1.9080     5.3150 h1         1 67R       0.065200
     35 H6           1.9230     4.8480     3.5570 h4         1 67R       0.037100
     36 H7           2.6380     4.7600     8.3520 h4         1 67R       0.065100
     37 H8           4.8490     9.2800     7.6800 h1         1 67R       0.067200
     38 H9           3.1740     9.7910     7.9350 h1         1 67R       0.067200
     39 H10          2.1510    11.4730     6.2130 h4         1 67R       0.048100
     40 H11          5.7770    12.5460     2.6410 hc         1 67R       0.061367
     41 H12          6.2680    13.6550     3.9290 hc         1 67R       0.061367
     42 H13          4.7060    13.8670     3.1280 hc         1 67R       0.061367
     43 H14          3.4420     1.9470     4.4020 hn         1 67R       0.462800
     44 H15          3.3130     8.2690     5.5240 hn         1 67R       0.339500
@<TRIPOS>BOND
     1    17    16 1
     2    28     2 1
     3    16    23 1
     4    16    24 2
     5    23    14 1
     6    24    15 1
     7    14    15 2
     8    14    13 1
     9     2     3 ar
    10     2     1 ar
    11     3     4 ar
    12    27    25 2
    13    13    22 1
    14    22    12 1
    15    19     9 ar
    16    19    10 ar
    17     9     8 ar
    18    29     1 1
    19     1     6 ar
    20     4    25 1
    21     4     5 ar
    22    25    26 2
    23    25    18 1
    24    12    10 1
    25    12    21 2
    26    10    11 ar
    27     7     8 1
    28     7    18 1
    29     8    20 ar
    30     6     5 ar
    31    11    20 ar
    32     3    30 1
    33     5    31 1
    34     6    32 1
    35     7    33 1
    36     7    34 1
    37     9    35 1
    38    11    36 1
    39    13    37 1
    40    13    38 1
    41    15    39 1
    42    17    40 1
    43    17    41 1
    44    17    42 1
    45    18    43 1
    46    22    44 1
@<TRIPOS>SUBSTRUCTURE
     1 67R         1 TEMP              0 ****  ****    0 ROOT
