@<TRIPOS>MOLECULE
67S
   60    62     1     0     0
SMALL
bcc


@<TRIPOS>ATOM
      1 O4           0.0000     0.0000     0.0000 o          1 67S      -0.589800
      2 S            1.4210     0.0000     0.0000 sy         1 67S       0.875300
      3 O3           2.1540     0.0000     1.2180 o          1 67S      -0.589800
      4 C19          2.0580    -1.2700    -1.1270 c3         1 67S       0.012700
      5 C18          1.8540     1.5270    -0.7670 ca         1 67S      -0.128500
      6 C20          2.8020     2.3460    -0.1850 ca         1 67S      -0.021000
      7 C16          1.2500     1.8990    -1.9530 ca         1 67S      -0.031300
      8 C17          0.2220     1.0000    -2.5880 c3         1 67S       0.239700
      9 O2          -0.1860     1.5530    -3.8410 oh         1 67S      -0.595800
     10 C15          1.5880     3.0960    -2.5580 ca         1 67S      -0.080000
     11 C14          2.5300     3.9220    -1.9800 ca         1 67S      -0.118000
     12 C13          3.1470     3.5470    -0.7940 ca         1 67S      -0.010400
     13 N4           4.1000     4.3800    -0.2060 nh         1 67S      -0.359000
     14 C21          4.2990     5.5990    -1.0030 c3         1 67S       0.120800
     15 C4           5.2900     6.5190    -0.2860 c3         1 67S       0.126500
     16 C2           4.7180     6.9250     1.0730 c3         1 67S      -0.087700
     17 C3           5.6260     7.9750     1.7160 c3         1 67S      -0.024600
     18 C1           3.3170     7.5110     0.8820 c3         1 67S      -0.024600
     19 C12          5.3720     3.6700    -0.0090 c3         1 67S       0.139800
     20 C11          6.3620     4.5910     0.7070 c3         1 67S       0.123800
     21 N1           6.5610     5.8080    -0.0900 nh         1 67S      -0.442300
     22 C5           7.5070     6.6340     0.4920 ca         1 67S       0.716900
     23 N2           8.0950     6.2520     1.6170 nb         1 67S      -0.612000
     24 C6           9.0020     7.0180     2.1980 ca         1 67S       0.326600
     25 C7           9.6670     6.5740     3.4770 c3         1 67S       0.539600
     26 F2          11.0560     6.5910     3.3100 f          1 67S      -0.200967
     27 F1           9.3130     7.4450     4.5120 f          1 67S      -0.200967
     28 F3           9.2510     5.2770     3.7940 f          1 67S      -0.200967
     29 N3           7.8050     7.7860    -0.0900 nb         1 67S      -0.620000
     30 C10          8.7040     8.5990     0.4410 ca         1 67S       0.484200
     31 C8           9.3350     8.2320     1.6200 ca         1 67S      -0.320900
     32 C9          10.3640     9.1320     2.2540 c3         1 67S       0.274700
     33 O1          10.5220    10.3090     1.4590 oh         1 67S      -0.594800
     34 H1           2.6410    -1.9910    -0.5670 h1         1 67S       0.065033
     35 H2           2.6860    -0.8040    -1.8780 h1         1 67S       0.065033
     36 H3           1.2290    -1.7720    -1.6100 h1         1 67S       0.065033
     37 H4           3.2810     2.0500     0.7400 ha         1 67S       0.143000
     38 H5           0.6510     0.0180    -2.7500 h1         1 67S       0.018700
     39 H6          -0.6380     0.9150    -1.9340 h1         1 67S       0.018700
     40 H7          -0.9060     1.0510    -4.1870 ho         1 67S       0.396000
     41 H8           1.1090     3.3870    -3.4860 ha         1 67S       0.129000
     42 H9           2.7950     4.8590    -2.4570 ha         1 67S       0.122000
     43 H10          4.6940     5.3330    -1.9760 h1         1 67S       0.034700
     44 H11          3.3520     6.1110    -1.1200 h1         1 67S       0.034700
     45 H12          5.4620     7.4020    -0.8890 h1         1 67S       0.065700
     46 H13          4.6600     6.0540     1.7150 hc         1 67S       0.056700
     47 H14          6.0550     8.6020     0.9440 hc         1 67S       0.013700
     48 H15          5.0460     8.5850     2.3970 hc         1 67S       0.013700
     49 H16          6.4200     7.4800     2.2610 hc         1 67S       0.013700
     50 H17          3.0690     8.1360     1.7320 hc         1 67S       0.013700
     51 H18          3.2950     8.1070    -0.0230 hc         1 67S       0.013700
     52 H19          2.5960     6.7070     0.8020 hc         1 67S       0.013700
     53 H20          5.2010     2.7860     0.5940 h1         1 67S       0.026200
     54 H21          5.7780     3.3840    -0.9720 h1         1 67S       0.026200
     55 H22          5.9670     4.8580     1.6800 h1         1 67S       0.043700
     56 H23          7.3100     4.0790     0.8250 h1         1 67S       0.043700
     57 H24          8.9420     9.5410    -0.0380 h4         1 67S       0.013100
     58 H25         10.0370     9.4090     3.2490 h1         1 67S       0.011200
     59 H26         11.3110     8.6090     2.3170 h1         1 67S       0.011200
     60 H27         11.1630    10.8740     1.8580 ho         1 67S       0.402000
@<TRIPOS>BOND
     1     1     2 2   
     2     2     3 2   
     3     2     4 1   
     4     2     5 1   
     5     4    34 1   
     6     4    35 1   
     7     4    36 1   
     8     5     6 ar  
     9     5     7 ar  
    10     6    12 ar  
    11     6    37 1   
    12     7     8 1   
    13     7    10 ar  
    14     8     9 1   
    15     8    38 1   
    16     8    39 1   
    17     9    40 1   
    18    10    11 ar  
    19    10    41 1   
    20    11    12 ar  
    21    11    42 1   
    22    12    13 1   
    23    13    14 1   
    24    13    19 1   
    25    14    15 1   
    26    14    43 1   
    27    14    44 1   
    28    15    16 1   
    29    15    21 1   
    30    15    45 1   
    31    16    17 1   
    32    16    18 1   
    33    16    46 1   
    34    17    47 1   
    35    17    48 1   
    36    17    49 1   
    37    18    50 1   
    38    18    51 1   
    39    18    52 1   
    40    19    20 1   
    41    19    53 1   
    42    19    54 1   
    43    20    21 1   
    44    20    55 1   
    45    20    56 1   
    46    21    22 1   
    47    22    23 ar  
    48    22    29 ar  
    49    23    24 ar  
    50    24    25 1   
    51    24    31 ar  
    52    25    26 1   
    53    25    27 1   
    54    25    28 1   
    55    29    30 ar  
    56    30    31 ar  
    57    30    57 1   
    58    31    32 1   
    59    32    33 1   
    60    32    58 1   
    61    32    59 1   
    62    33    60 1   
@<TRIPOS>SUBSTRUCTURE
     1 67S         1 TEMP              0 ****  ****    0 ROOT
