@<TRIPOS>MOLECULE
molecule
   60    62     1     0     0
SMALL
bcc


@<TRIPOS>ATOM
      1 O4           0.0000     0.0000     0.0000 o          1 67S      -0.620300
      2 S            1.4210     0.0000     0.0000 sy         1 67S       1.193300
      3 O3           2.1540     0.0000     1.2180 o          1 67S      -0.620300
      4 C19          2.0580    -1.2700    -1.1270 c3         1 67S      -0.237300
      5 C18          1.8540     1.5270    -0.7670 ca         1 67S      -0.272500
      6 C20          2.8020     2.3460    -0.1850 ca         1 67S      -0.050000
      7 C16          1.2500     1.8990    -1.9530 ca         1 67S      -0.024300
      8 C17          0.2220     1.0000    -2.5880 c3         1 67S       0.158700
      9 O2          -0.1860     1.5530    -3.8410 oh         1 67S      -0.608800
     10 C15          1.5880     3.0960    -2.5580 ca         1 67S      -0.096000
     11 C14          2.5300     3.9220    -1.9800 ca         1 67S      -0.136000
     12 C13          3.1470     3.5470    -0.7940 ca         1 67S       0.083600
     13 N4           4.1000     4.3800    -0.2060 nh         1 67S      -0.597000
     14 C21          4.2990     5.5990    -1.0030 c3         1 67S       0.159800
     15 C4           5.2900     6.5190    -0.2860 c3         1 67S       0.187500
     16 C2           4.7180     6.9250     1.0730 c3         1 67S      -0.106700
     17 C3           5.6260     7.9750     1.7160 c3         1 67S      -0.100600
     18 C1           3.3170     7.5110     0.8820 c3         1 67S      -0.100600
     19 C12          5.3720     3.6700    -0.0090 c3         1 67S       0.161800
     20 C11          6.3620     4.5910     0.7070 c3         1 67S       0.166800
     21 N1           6.5610     5.8080    -0.0900 nh         1 67S      -0.676300
     22 C5           7.5070     6.6340     0.4920 ca         1 67S       0.887900
     23 N2           8.0950     6.2520     1.6170 nb         1 67S      -0.746000
     24 C6           9.0020     7.0180     2.1980 ca         1 67S       0.399600
     25 C7           9.6670     6.5740     3.4770 c3         1 67S       0.582600
     26 F2          11.0560     6.5910     3.3100 f          1 67S      -0.212633
     27 F1           9.3130     7.4450     4.5120 f          1 67S      -0.212633
     28 F3           9.2510     5.2770     3.7940 f          1 67S      -0.212633
     29 N3           7.8050     7.7860    -0.0900 nb         1 67S      -0.736000
     30 C10          8.7040     8.5990     0.4410 ca         1 67S       0.507200
     31 C8           9.3350     8.2320     1.6200 ca         1 67S      -0.329900
     32 C9          10.3640     9.1320     2.2540 c3         1 67S       0.183700
     33 O1          10.5220    10.3090     1.4590 oh         1 67S      -0.614800
     34 H1           2.6410    -1.9910    -0.5670 h1         1 67S       0.102033
     35 H2           2.6860    -0.8040    -1.8780 h1         1 67S       0.102033
     36 H3           1.2290    -1.7720    -1.6100 h1         1 67S       0.102033
     37 H4           3.2810     2.0500     0.7400 ha         1 67S       0.166000
     38 H5           0.6510     0.0180    -2.7500 h1         1 67S       0.050200
     39 H6          -0.6380     0.9150    -1.9340 h1         1 67S       0.050200
     40 H7          -0.9060     1.0510    -4.1870 ho         1 67S       0.411000
     41 H8           1.1090     3.3870    -3.4860 ha         1 67S       0.160000
     42 H9           2.7950     4.8590    -2.4570 ha         1 67S       0.142000
     43 H10          4.6940     5.3330    -1.9760 h1         1 67S       0.057200
     44 H11          3.3520     6.1110    -1.1200 h1         1 67S       0.057200
     45 H12          5.4620     7.4020    -0.8890 h1         1 67S       0.094700
     46 H13          4.6600     6.0540     1.7150 hc         1 67S       0.076700
     47 H14          6.0550     8.6020     0.9440 hc         1 67S       0.040700
     48 H15          5.0460     8.5850     2.3970 hc         1 67S       0.040700
     49 H16          6.4200     7.4800     2.2610 hc         1 67S       0.040700
     50 H17          3.0690     8.1360     1.7320 hc         1 67S       0.040700
     51 H18          3.2950     8.1070    -0.0230 hc         1 67S       0.040700
     52 H19          2.5960     6.7070     0.8020 hc         1 67S       0.040700
     53 H20          5.2010     2.7860     0.5940 h1         1 67S       0.054700
     54 H21          5.7780     3.3840    -0.9720 h1         1 67S       0.054700
     55 H22          5.9670     4.8580     1.6800 h1         1 67S       0.070700
     56 H23          7.3100     4.0790     0.8250 h1         1 67S       0.070700
     57 H24          8.9420     9.5410    -0.0380 h4         1 67S       0.062100
     58 H25         10.0370     9.4090     3.2490 h1         1 67S       0.048200
     59 H26         11.3110     8.6090     2.3170 h1         1 67S       0.048200
     60 H27         11.1630    10.8740     1.8580 ho         1 67S       0.416000
@<TRIPOS>BOND
     1    33    32 1
     2    32    31 1
     3    27    25 1
     4    26    25 1
     5    31    30 ar
     6    31    24 ar
     7    30    29 ar
     8    25    24 1
     9    25    28 1
    10    24    23 ar
    11    29    22 ar
    12    23    22 ar
    13    22    21 1
    14    21    15 1
    15    21    20 1
    16    15    14 1
    17    15    16 1
    18    18    16 1
    19    14    13 1
    20    20    19 1
    21    16    17 1
    22    19    13 1
    23    13    12 1
    24    12    11 ar
    25    12     6 ar
    26    11    10 ar
    27     6     5 ar
    28    10     7 ar
    29     5     7 ar
    30     5     2 1
    31     7     8 1
    32     4     2 1
    33     2     3 2
    34     2     1 2
    35     8     9 1
    36     4    34 1
    37     4    35 1
    38     4    36 1
    39     6    37 1
    40     8    38 1
    41     8    39 1
    42     9    40 1
    43    10    41 1
    44    11    42 1
    45    14    43 1
    46    14    44 1
    47    15    45 1
    48    16    46 1
    49    17    47 1
    50    17    48 1
    51    17    49 1
    52    18    50 1
    53    18    51 1
    54    18    52 1
    55    19    53 1
    56    19    54 1
    57    20    55 1
    58    20    56 1
    59    30    57 1
    60    32    58 1
    61    32    59 1
    62    33    60 1
@<TRIPOS>SUBSTRUCTURE
     1 67S         1 TEMP              0 ****  ****    0 ROOT
