@<TRIPOS>MOLECULE
67T
   48    51     1     0     0
SMALL
bcc


@<TRIPOS>ATOM
      1 C10          0.0000     0.0000     0.0000 c          1 67T       0.614100
      2 C15          0.3120    -0.3810    -4.7970 c3         1 67T      -0.024100
      3 C17         -2.3170     1.4620    -4.7240 ca         1 67T       0.585200
      4 C21         -3.9520     0.5250    -6.0610 ca         1 67T       0.783900
      5 C26         -4.1080     1.1730    -1.2570 ca         1 67T      -0.093500
      6 C28         -4.0900    -1.2190    -1.4150 ca         1 67T      -0.093500
      7 C01          3.5840     0.0000     1.1250 ca         1 67T      -0.125000
      8 C02          4.2390     0.0010    -0.0980 ca         1 67T      -0.053000
      9 C03          3.5290     0.0010    -1.2790 ca         1 67T      -0.097000
     10 C04          2.1330     0.0010    -1.2470 ca         1 67T       0.154400
     11 C05          1.4690     0.0000     0.0000 ca         1 67T      -0.212600
     12 C06          2.2060     0.0000     1.1840 ca         1 67T       0.026400
     13 N07          1.3960     0.0010    -2.3850 nc         1 67T      -0.520100
     14 C08          0.0970    -0.0050    -2.3550 cd         1 67T       0.273900
     15 N09         -0.6240    -0.0050    -1.2010 n          1 67T       0.167500
     16 C11         -2.0230    -0.0120    -1.2580 ca         1 67T      -0.134400
     17 O12         -0.6340    -0.0010     1.0400 o          1 67T      -0.637500
     18 Cl1          1.3960    -0.0010     2.7190 cl         1 67T       0.036600
     19 C14         -0.6490    -0.0110    -3.6650 c3         1 67T       0.096200
     20 N16         -1.2070     1.3200    -3.9150 nu         1 67T      -0.478900
     21 C18         -2.8640     2.7360    -4.9720 ca         1 67T      -0.327600
     22 C19         -3.9970     2.8210    -5.8070 ca         1 67T       0.622200
     23 N20         -4.5000     1.7040    -6.3210 nb         1 67T      -0.699000
     24 N22         -2.8830     0.4000    -5.2860 nb         1 67T      -0.719000
     25 N23         -4.5750     4.0430    -6.0840 nv         1 67T      -0.656500
     26 N24         -4.5050    -0.6070    -6.6220 nv         1 67T      -0.627500
     27 C25         -2.7270     1.1830    -1.2010 ca         1 67T      -0.071000
     28 C27         -4.7880    -0.0260    -1.3640 ca         1 67T      -0.076000
     29 C29         -2.7100    -1.2150    -1.3590 ca         1 67T      -0.071000
     30 C30         -2.2870     3.9130    -4.3940 cg         1 67T       0.256800
     31 N31         -1.8110     4.8370    -3.9370 n1         1 67T      -0.395800
     32 H1          -0.1780    -1.0670    -5.4770 hc         1 67T       0.024700
     33 H2           1.1940    -0.8540    -4.3810 hc         1 67T       0.024700
     34 H3           0.6010     0.5140    -5.3330 hc         1 67T       0.024700
     35 H4          -4.6580     2.1050    -1.2120 ha         1 67T       0.110000
     36 H5          -4.6250    -2.1570    -1.4990 ha         1 67T       0.110000
     37 H6           4.1560    -0.0000     2.0460 ha         1 67T       0.119000
     38 H7           5.3220     0.0010    -0.1330 ha         1 67T       0.107000
     39 H8           4.0540     0.0020    -2.2270 ha         1 67T       0.122000
     40 H9          -1.4510    -0.7370    -3.6210 h1         1 67T       0.073700
     41 H10         -0.7350     2.1310    -3.5660 hn         1 67T       0.308800
     42 H11         -4.2700     4.5730    -6.8770 hn         1 67T       0.287300
     43 H12         -5.3090     4.3940    -5.5010 hn         1 67T       0.287300
     44 H13         -4.0580    -1.0490    -7.4020 hn         1 67T       0.282800
     45 H14         -5.3410    -1.0000    -6.2370 hn         1 67T       0.282800
     46 H15         -2.1950     2.1230    -1.1160 ha         1 67T       0.113000
     47 H16         -5.8710    -0.0330    -1.4080 ha         1 67T       0.106000
     48 H17         -2.1640    -2.1500    -1.4000 ha         1 67T       0.113000
@<TRIPOS>BOND
     1     1    11 1   
     2     1    15 1   
     3     1    17 2   
     4     2    19 1   
     5     2    32 1   
     6     2    33 1   
     7     2    34 1   
     8     3    20 1   
     9     3    21 ar  
    10     3    24 ar  
    11     4    23 ar  
    12     4    24 ar  
    13     4    26 1   
    14     5    27 ar  
    15     5    28 ar  
    16     5    35 1   
    17     6    28 ar  
    18     6    29 ar  
    19     6    36 1   
    20     7     8 ar  
    21     7    12 ar  
    22     7    37 1   
    23     8     9 ar  
    24     8    38 1   
    25     9    10 ar  
    26     9    39 1   
    27    10    11 ar  
    28    10    13 1   
    29    11    12 ar  
    30    12    18 1   
    31    13    14 2   
    32    14    15 1   
    33    14    19 1   
    34    15    16 1   
    35    16    27 ar  
    36    16    29 ar  
    37    19    20 1   
    38    19    40 1   
    39    20    41 1   
    40    21    22 ar  
    41    21    30 1   
    42    22    23 ar  
    43    22    25 1   
    44    25    42 1   
    45    25    43 1   
    46    26    44 1   
    47    26    45 1   
    48    27    46 1   
    49    28    47 1   
    50    29    48 1   
    51    30    31 3   
@<TRIPOS>SUBSTRUCTURE
     1 67T         1 TEMP              0 ****  ****    0 ROOT
