@<TRIPOS>MOLECULE
molecule
   48    51     1     0     0
SMALL
bcc


@<TRIPOS>ATOM
      1 C10          0.0000     0.0000     0.0000 c          1 67T       0.703100
      2 C15          0.3120    -0.3810    -4.7970 c3         1 67T      -0.105100
      3 C17         -2.3170     1.4620    -4.7240 ca         1 67T       0.776200
      4 C21         -3.9520     0.5250    -6.0610 ca         1 67T       1.001900
      5 C26         -4.1080     1.1730    -1.2570 ca         1 67T      -0.121500
      6 C28         -4.0900    -1.2190    -1.4150 ca         1 67T      -0.121500
      7 C01          3.5840     0.0000     1.1250 ca         1 67T      -0.147000
      8 C02          4.2390     0.0010    -0.0980 ca         1 67T      -0.085000
      9 C03          3.5290     0.0010    -1.2790 ca         1 67T      -0.122000
     10 C04          2.1330     0.0010    -1.2470 ca         1 67T       0.201400
     11 C05          1.4690     0.0000     0.0000 ca         1 67T      -0.201600
     12 C06          2.2060     0.0000     1.1840 ca         1 67T       0.094400
     13 N07          1.3960     0.0010    -2.3850 nc         1 67T      -0.640100
     14 C08          0.0970    -0.0050    -2.3550 cd         1 67T       0.488900
     15 N09         -0.6240    -0.0050    -1.2010 n          1 67T      -0.286500
     16 C11         -2.0230    -0.0120    -1.2580 ca         1 67T       0.014600
     17 O12         -0.6340    -0.0010     1.0400 o          1 67T      -0.581500
     18 Cl1          1.3960    -0.0010     2.7190 cl         1 67T      -0.061400
     19 C14         -0.6490    -0.0110    -3.6650 c3         1 67T       0.211200
     20 N16         -1.2070     1.3200    -3.9150 nu         1 67T      -0.893900
     21 C18         -2.8640     2.7360    -4.9720 ca         1 67T      -0.370600
     22 C19         -3.9970     2.8210    -5.8070 ca         1 67T       0.798200
     23 N20         -4.5000     1.7040    -6.3210 nb         1 67T      -0.811000
     24 N22         -2.8830     0.4000    -5.2860 nb         1 67T      -0.833000
     25 N23         -4.5750     4.0430    -6.0840 nv         1 67T      -1.080500
     26 N24         -4.5050    -0.6070    -6.6220 nv         1 67T      -1.055500
     27 C25         -2.7270     1.1830    -1.2010 ca         1 67T      -0.104000
     28 C27         -4.7880    -0.0260    -1.3640 ca         1 67T      -0.113000
     29 C29         -2.7100    -1.2150    -1.3590 ca         1 67T      -0.104000
     30 C30         -2.2870     3.9130    -4.3940 cg         1 67T       0.260800
     31 N31         -1.8110     4.8370    -3.9370 n1         1 67T      -0.380800
     32 H1          -0.1780    -1.0670    -5.4770 hc         1 67T       0.056367
     33 H2           1.1940    -0.8540    -4.3810 hc         1 67T       0.056367
     34 H3           0.6010     0.5140    -5.3330 hc         1 67T       0.056367
     35 H4          -4.6580     2.1050    -1.2120 ha         1 67T       0.138000
     36 H5          -4.6250    -2.1570    -1.4990 ha         1 67T       0.138000
     37 H6           4.1560    -0.0000     2.0460 ha         1 67T       0.150000
     38 H7           5.3220     0.0010    -0.1330 ha         1 67T       0.142000
     39 H8           4.0540     0.0020    -2.2270 ha         1 67T       0.153000
     40 H9          -1.4510    -0.7370    -3.6210 h1         1 67T       0.103700
     41 H10         -0.7350     2.1310    -3.5660 hn         1 67T       0.462800
     42 H11         -4.2700     4.5730    -6.8770 hn         1 67T       0.448300
     43 H12         -5.3090     4.3940    -5.5010 hn         1 67T       0.448300
     44 H13         -4.0580    -1.0490    -7.4020 hn         1 67T       0.448800
     45 H14         -5.3410    -1.0000    -6.2370 hn         1 67T       0.448800
     46 H15         -2.1950     2.1230    -1.1160 ha         1 67T       0.141000
     47 H16         -5.8710    -0.0330    -1.4080 ha         1 67T       0.134000
     48 H17         -2.1640    -2.1500    -1.4000 ha         1 67T       0.141000
@<TRIPOS>BOND
     1    25    22 1   
     2    23    22 ar  
     3    23     4 ar  
     4    26     4 1   
     5    22    21 ar  
     6     4    24 ar  
     7    21    30 1   
     8    21     3 ar  
     9    24     3 ar  
    10    30    31 3   
    11     3    20 1   
    12     6    28 ar  
    13     6    29 ar  
    14    28     5 ar  
    15    20    19 1   
    16    29    16 ar  
    17    19     2 1   
    18    19    14 1   
    19     5    27 ar  
    20    16    27 ar  
    21    16    15 1   
    22    14    15 1   
    23    14    13 2   
    24    15     1 1   
    25    13    10 1   
    26     1    17 2   
    27     1    11 1   
    28    10    11 ar  
    29    10     9 ar  
    30    11    12 ar  
    31     9     8 ar  
    32    12    18 1   
    33    12     7 ar  
    34     8     7 ar  
    35     2    32 1   
    36     2    33 1   
    37     2    34 1   
    38     5    35 1   
    39     6    36 1   
    40     7    37 1   
    41     8    38 1   
    42     9    39 1   
    43    19    40 1   
    44    20    41 1   
    45    25    42 1   
    46    25    43 1   
    47    26    44 1   
    48    26    45 1   
    49    27    46 1   
    50    28    47 1   
    51    29    48 1   
@<TRIPOS>SUBSTRUCTURE
     1 67T         1 TEMP              0 ****  ****    0 ROOT
