@<TRIPOS>MOLECULE
molecule
   33    35     1     0     0
SMALL
bcc


@<TRIPOS>ATOM
      1 C1           0.0000     0.0000     0.0000 c3         1 67U      -0.083100
      2 C18          1.5290     0.0000     0.0000 c3         1 67U      -0.108000
      3 C2           2.0400     0.0000     1.4420 c3         1 67U      -0.083100
      4 C17          2.0320    -1.2310    -0.7110 cc         1 67U       0.406600
      5 N10          1.7840    -2.4660    -0.3700 nd         1 67U      -0.510800
      6 N19          2.4250    -3.3210    -1.2750 na         1 67U       0.082400
      7 C3           2.3930    -4.7850    -1.2390 c3         1 67U       0.060600
      8 C7           3.0750    -2.5690    -2.1820 cd         1 67U      -0.095300
      9 C13          2.8470    -1.2480    -1.8630 cc         1 67U      -0.344200
     10 C14          3.3620    -0.0700    -2.5890 cc         1 67U       0.560400
     11 N11          4.1510    -0.1160    -3.7060 na         1 67U      -0.264300
     12 C15          4.4110     1.1910    -4.0720 ca         1 67U      -0.225500
     13 C6           5.1360     1.7820    -5.0970 ca         1 67U      -0.063000
     14 C12          5.1790     3.1670    -5.1560 ca         1 67U      -0.150200
     15 Br4          6.1490     4.0330    -6.5280 br         1 67U      -0.082100
     16 C5           4.5050     3.9100    -4.2000 ca         1 67U       0.448200
     17 N8           3.8220     3.3300    -3.2350 nb         1 67U      -0.642000
     18 C16          3.7490     2.0050    -3.1340 ca         1 67U       0.604300
     19 N9           3.1270     1.1810    -2.2650 nd         1 67U      -0.681700
     20 H1          -0.3610     0.9770     0.2960 hc         1 67U       0.038033
     21 H2          -0.3610    -0.2320    -0.9950 hc         1 67U       0.038033
     22 H3          -0.3610    -0.7450     0.6980 hc         1 67U       0.038033
     23 H4           1.8900     0.8850    -0.5110 hc         1 67U       0.110700
     24 H5           1.5540    -0.7930     1.9970 hc         1 67U       0.038033
     25 H6           1.8160     0.9540     1.9040 hc         1 67U       0.038033
     26 H7           3.1110    -0.1600     1.4460 hc         1 67U       0.038033
     27 H8           1.7920    -5.1130    -0.4000 h1         1 67U       0.059033
     28 H9           3.4020    -5.1660    -1.1320 h1         1 67U       0.059033
     29 H10          1.9620    -5.1600    -2.1600 h1         1 67U       0.059033
     30 H11          3.6650    -2.9350    -3.0140 h4         1 67U       0.166000
     31 H12          4.5960    -0.9310    -4.0780 hn         1 67U       0.302700
     32 H13          5.4430     1.1940    -5.9530 ha         1 67U       0.146000
     33 H14          4.5400     4.9910    -4.2480 h4         1 67U       0.040100
@<TRIPOS>BOND
     1     1     2 1
     2     2     3 1
     3     2     4 1
     4     5     4 2
     5     5     6 1
     6     4     9 1
     7     6     7 1
     8     6     8 1
     9     9     8 2
    10     9    10 1
    11    10    11 1
    12    10    19 2
    13    11    12 1
    14    19    18 1
    15    12    18 ar
    16    12    13 ar
    17    18    17 ar
    18    13    14 ar
    19    17    16 ar
    20    14    16 ar
    21    14    15 1
    22     1    20 1
    23     1    21 1
    24     1    22 1
    25     2    23 1
    26     3    24 1
    27     3    25 1
    28     3    26 1
    29     7    27 1
    30     7    28 1
    31     7    29 1
    32     8    30 1
    33    11    31 1
    34    13    32 1
    35    16    33 1
@<TRIPOS>SUBSTRUCTURE
     1 67U         1 TEMP              0 ****  ****    0 ROOT
