@<TRIPOS>MOLECULE
67W
   38    40     1     0     0
SMALL
bcc


@<TRIPOS>ATOM
      1 N1           0.0000     0.0000     0.0000 na         1 67W       0.431400
      2 C4           1.3620    -0.8900    12.6780 ca         1 67W      -0.087000
      3 C5           0.4560    -0.1010    11.9910 ca         1 67W      -0.153000
      4 C6           0.5120    -0.0200    10.6150 ca         1 67W      -0.091000
      5 C7           1.4850    -0.7350     9.9160 ca         1 67W      -0.154600
      6 C8           1.5500    -0.6530     8.4410 c          1 67W       0.586700
      7 C10          1.8180     0.0130     5.6750 ca         1 67W      -0.136000
      8 C13         -0.5890     0.0250     4.2870 ca         1 67W      -0.064500
      9 C15          0.6260     0.0100     2.1100 cc         1 67W       0.456800
     10 C17          1.3500     0.0000     0.0000 cd         1 67W      -0.273300
     11 O2           2.4560    -1.1990     7.8420 o          1 67W      -0.578100
     12 C3           2.3330    -1.5970    11.9910 ca         1 67W      -0.117000
     13 C2           2.3960    -1.5290    10.6150 ca         1 67W       0.077700
     14 C1           3.4540    -2.3000     9.8690 c3         1 67W      -0.124100
     15 C            4.6100    -1.3880     9.5490 c          1 67W       1.005600
     16 O1           4.5780    -0.2300     9.8920 o          1 67W      -0.900800
     17 O            5.6740    -1.8620     8.8830 o          1 67W      -0.900800
     18 C9           0.6110     0.0230     6.3640 ca         1 67W      -0.057400
     19 C14         -0.5910     0.0300     5.6660 ca         1 67W      -0.136000
     20 C12          0.6210     0.0140     3.5930 ca         1 67W      -0.164500
     21 C11          1.8250     0.0080     4.2960 ca         1 67W      -0.064500
     22 N2          -0.4350     0.0070     1.3320 nd         1 67W      -0.677800
     23 C16          1.7680     0.0000     1.2850 cc         1 67W      -0.316300
     24 H1          -0.5880    -0.0020    -0.8100 hn         1 67W       0.138700
     25 H4          -0.1500     0.6540    10.0850 ha         1 67W       0.085000
     26 H5           2.7530     0.0080     6.2210 ha         1 67W       0.135500
     27 H6          -1.5260     0.0300     3.7440 ha         1 67W       0.109000
     28 H7           1.9870    -0.0060    -0.8760 h4         1 67W       0.136000
     29 H8           3.0410    -2.2110    12.5350 ha         1 67W       0.107000
     30 H9           3.8020    -3.1220    10.4820 hc         1 67W       0.034200
     31 H10          3.0360    -2.6890     8.9480 hc         1 67W       0.034200
     32 H13         -1.5300     0.0380     6.2060 ha         1 67W       0.135500
     33 H14          2.7660     0.0010     3.7590 ha         1 67W       0.109000
     34 H15          2.7980     0.0000     1.6210 ha         1 67W       0.142000
     35 H2           1.3100    -0.9540    13.7580 ha         1 67W       0.084000
     36 N            0.6070     0.0280     7.7620 ns         1 67W      -0.068100
     37 H3          -0.2980     0.4540    12.5350 ha         1 67W       0.087000
     38 H12         -0.0790     0.5620     8.2570 hn         1 67W       0.169500
@<TRIPOS>BOND
     1     1    10 1   
     2     1    22 1   
     3     1    24 1   
     4     2     3 ar  
     5     2    12 ar  
     6     2    35 1   
     7     3     4 ar  
     8     3    37 1   
     9     4     5 ar  
    10     4    25 1   
    11     5     6 1   
    12     5    13 ar  
    13     6    11 2   
    14     6    36 1   
    15     7    18 ar  
    16     7    21 ar  
    17     7    26 1   
    18     8    19 ar  
    19     8    20 ar  
    20     8    27 1   
    21     9    20 1   
    22     9    22 2   
    23     9    23 1   
    24    10    23 2   
    25    10    28 1   
    26    12    13 ar  
    27    12    29 1   
    28    13    14 1   
    29    14    15 1   
    30    14    30 1   
    31    14    31 1   
    32    15    16 1   
    33    15    17 1   
    34    18    19 ar  
    35    18    36 1   
    36    19    32 1   
    37    20    21 ar  
    38    21    33 1   
    39    23    34 1   
    40    36    38 1   
@<TRIPOS>SUBSTRUCTURE
     1 67W         1 TEMP              0 ****  ****    0 ROOT
