@<TRIPOS>MOLECULE
molecule
   38    40     1     0     0
SMALL
bcc


@<TRIPOS>ATOM
      1 N1           0.0000     0.0000     0.0000 na         1 67W      -0.056600
      2 C4           1.3620    -0.8900    12.6780 ca         1 67W      -0.112000
      3 C5           0.4560    -0.1010    11.9910 ca         1 67W      -0.174000
      4 C6           0.5120    -0.0200    10.6150 ca         1 67W      -0.109000
      5 C7           1.4850    -0.7350     9.9160 ca         1 67W      -0.142600
      6 C8           1.5500    -0.6530     8.4410 c          1 67W       0.672700
      7 C10          1.8180     0.0130     5.6750 ca         1 67W      -0.156000
      8 C13         -0.5890     0.0250     4.2870 ca         1 67W      -0.091000
      9 C15          0.6260     0.0100     2.1100 cc         1 67W       0.418800
     10 C17          1.3500     0.0000     0.0000 cd         1 67W      -0.126300
     11 O2           2.4560    -1.1990     7.8420 o          1 67W      -0.545100
     12 C3           2.3330    -1.5970    11.9910 ca         1 67W      -0.138000
     13 C2           2.3960    -1.5290    10.6150 ca         1 67W       0.060700
     14 C1           3.4540    -2.3000     9.8690 c3         1 67W      -0.164100
     15 C            4.6100    -1.3880     9.5490 c          1 67W       0.913600
     16 O1           4.5780    -0.2300     9.8920 o          1 67W      -0.846800
     17 O            5.6740    -1.8620     8.8830 o          1 67W      -0.846800
     18 C9           0.6110     0.0230     6.3640 ca         1 67W       0.082600
     19 C14         -0.5910     0.0300     5.6660 ca         1 67W      -0.156000
     20 C12          0.6210     0.0140     3.5930 ca         1 67W      -0.159500
     21 C11          1.8250     0.0080     4.2960 ca         1 67W      -0.091000
     22 N2          -0.4350     0.0070     1.3320 nd         1 67W      -0.524800
     23 C16          1.7680     0.0000     1.2850 cc         1 67W      -0.332300
     24 H1          -0.5880    -0.0020    -0.8100 hn         1 67W       0.319700
     25 H4          -0.1500     0.6540    10.0850 ha         1 67W       0.104000
     26 H5           2.7530     0.0080     6.2210 ha         1 67W       0.159000
     27 H6          -1.5260     0.0300     3.7440 ha         1 67W       0.136000
     28 H7           1.9870    -0.0060    -0.8760 h4         1 67W       0.160000
     29 H8           3.0410    -2.2110    12.5350 ha         1 67W       0.133000
     30 H9           3.8020    -3.1220    10.4820 hc         1 67W       0.056200
     31 H10          3.0360    -2.6890     8.9480 hc         1 67W       0.056200
     32 H13         -1.5300     0.0380     6.2060 ha         1 67W       0.159000
     33 H14          2.7660     0.0010     3.7590 ha         1 67W       0.136000
     34 H15          2.7980     0.0000     1.6210 ha         1 67W       0.160000
     35 H2           1.3100    -0.9540    13.7580 ha         1 67W       0.110000
     36 N            0.6070     0.0280     7.7620 ns         1 67W      -0.491100
     37 H3          -0.2980     0.4540    12.5350 ha         1 67W       0.109000
     38 H12         -0.0790     0.5620     8.2570 hn         1 67W       0.317500
@<TRIPOS>BOND
     1    16    15 1   
     2    15    14 1   
     3    15    17 1   
     4    14    13 1   
     5    11     6 2   
     6    13    12 ar  
     7    13     5 ar  
     8    12     2 ar  
     9     6     5 1   
    10     6    36 1   
    11     7    21 ar  
    12     7    18 ar  
    13     5     4 ar  
    14    22     1 1   
    15    22     9 2   
    16    21    20 ar  
    17     2     3 ar  
    18     1    10 1   
    19    36    18 1   
    20    18    19 ar  
    21    20     9 1   
    22    20     8 ar  
    23     9    23 1   
    24     4     3 ar  
    25    10    23 2   
    26    19     8 ar  
    27     1    24 1   
    28     2    35 1   
    29     3    37 1   
    30     4    25 1   
    31     7    26 1   
    32     8    27 1   
    33    10    28 1   
    34    12    29 1   
    35    14    30 1   
    36    14    31 1   
    37    36    38 1   
    38    19    32 1   
    39    21    33 1   
    40    23    34 1   
@<TRIPOS>SUBSTRUCTURE
     1 67W         1 TEMP              0 ****  ****    0 ROOT
