@<TRIPOS>MOLECULE
molecule
   30    31     1     0     0
SMALL
bcc


@<TRIPOS>ATOM
      1 C6           0.0000     0.0000     0.0000 c3         1 67Y       0.170000
      2 C7           1.5270     0.0000     0.0000 c3         1 67Y      -0.094400
      3 C8           2.0110     0.0000     1.4550 c3         1 67Y      -0.077400
      4 C10          0.2430    -1.7160     1.8410 ca         1 67Y      -0.072300
      5 C13         -2.4030    -2.4710     1.5060 ca         1 67Y      -0.134000
      6 C15         -0.5300    -1.0950     0.8870 ca         1 67Y      -0.100300
      7 O1          -3.4890     0.6180    -3.2810 oh         1 67Y      -0.573800
      8 C2          -2.1900     0.0380    -3.1400 c3         1 67Y       0.066400
      9 C3          -1.6940     0.2540    -1.7330 c          1 67Y       0.654100
     10 O4          -2.3840     0.8450    -0.9310 o          1 67Y      -0.574100
     11 N5          -0.4820    -0.2100    -1.3670 ns         1 67Y      -0.585900
     12 C9           1.6890    -1.3610     2.0700 c3         1 67Y      -0.037100
     13 C11         -0.3090    -2.7150     2.6330 ca         1 67Y      -0.136000
     14 C12         -1.6260    -3.0910     2.4680 ca         1 67Y      -0.123000
     15 C14         -1.8560    -1.4770     0.7220 ca         1 67Y      -0.110000
     16 H1          -0.3550     0.9560     0.3660 h1         1 67Y       0.090700
     17 H2           1.8910     0.8870    -0.5040 hc         1 67Y       0.047700
     18 H3           1.8910    -0.8870    -0.5040 hc         1 67Y       0.047700
     19 H4           1.4800     0.7690     2.0030 hc         1 67Y       0.051200
     20 H5           3.0840     0.1490     1.4700 hc         1 67Y       0.051200
     21 H6          -3.4380    -2.7620     1.3720 ha         1 67Y       0.131000
     22 H7          -3.7750     0.5360    -4.1760 ho         1 67Y       0.405000
     23 H8          -1.5080     0.5070    -3.8390 h1         1 67Y       0.037200
     24 H9          -2.2440    -1.0240    -3.3450 h1         1 67Y       0.037200
     25 H10          0.1030    -0.6640    -2.0400 hn         1 67Y       0.312500
     26 H11          1.8670    -1.3080     3.1380 hc         1 67Y       0.053200
     27 H12          2.3090    -2.1100     1.5930 hc         1 67Y       0.053200
     28 H13          0.2990    -3.2020     3.3860 ha         1 67Y       0.127000
     29 H14         -2.0500    -3.8720     3.0880 ha         1 67Y       0.127000
     30 H15         -2.4650    -0.9920    -0.0310 ha         1 67Y       0.155000
@<TRIPOS>BOND
     1     7     8 1   
     2     8     9 1   
     3    10     9 2   
     4     9    11 1   
     5    11     1 1   
     6    15     5 ar  
     7    15     6 ar  
     8     1     6 1   
     9     1     2 1   
    10     5    14 ar  
    11     6     4 ar  
    12     2     3 1   
    13    14    13 ar  
    14     4    13 ar  
    15     4    12 1   
    16     3    12 1   
    17     1    16 1   
    18     2    17 1   
    19     2    18 1   
    20     3    19 1   
    21     3    20 1   
    22     5    21 1   
    23     7    22 1   
    24     8    23 1   
    25     8    24 1   
    26    11    25 1   
    27    12    26 1   
    28    12    27 1   
    29    13    28 1   
    30    14    29 1   
    31    15    30 1   
@<TRIPOS>SUBSTRUCTURE
     1 67Y         1 TEMP              0 ****  ****    0 ROOT
