@<TRIPOS>MOLECULE
molecule
   58    60     1     0     0
SMALL
bcc


@<TRIPOS>ATOM
      1 CAB          0.0000     0.0000     0.0000 c3         1 67Z       0.130700
      2 OAU          1.4290     0.0000     0.0000 os         1 67Z      -0.333900
      3 CBA          2.0470     0.0000     1.2110 ca         1 67Z       0.114100
      4 CAK          1.2910    -0.0040     2.3750 ca         1 67Z      -0.179000
      5 CAJ          1.9190    -0.0030     3.6060 ca         1 67Z      -0.183000
      6 CAZ          3.3040     0.0010     3.6780 ca         1 67Z       0.108100
      7 OAT          3.9220     0.0030     4.8890 os         1 67Z      -0.330900
      8 CAA          3.0810    -0.0030     6.0460 c3         1 67Z       0.130700
      9 CAL          4.0590     0.0060     2.5140 ca         1 67Z      -0.107000
     10 CBB          3.4310    -0.0000     1.2840 ca         1 67Z      -0.081300
     11 CBC          4.2520    -0.0030     0.0200 c3         1 67Z       0.172000
     12 CAP          4.4640     1.4450    -0.4710 c3         1 67Z      -0.085400
     13 CAM          5.9250     1.4250    -0.9930 c3         1 67Z      -0.097400
     14 CAQ          6.6000     0.4580     0.0110 c3         1 67Z       0.089000
     15 NBD          5.5810    -0.5710     0.2880 n          1 67Z      -0.495800
     16 C            5.8280    -1.8260     0.7150 c          1 67Z       0.666100
     17 O            4.9080    -2.5910     0.9100 o          1 67Z      -0.603100
     18 CA           7.2460    -2.2760     0.9500 c3         1 67Z       0.063000
     19 N            7.2470    -3.6690     1.4070 ns         1 67Z      -0.596900
     20 CAV          8.4120    -4.2880     1.6810 c          1 67Z       0.783100
     21 OAD          9.4640    -3.6910     1.5490 o          1 67Z      -0.672100
     22 NAS          8.4130    -5.5680     2.1020 ns         1 67Z      -0.600900
     23 CAO          9.6800    -6.2410     2.4000 c3         1 67Z       0.182300
     24 CAY          9.4050    -7.6530     2.8470 ca         1 67Z      -0.138300
     25 CAH          9.3490    -8.6730     1.9160 ca         1 67Z      -0.098500
     26 CAF          9.0970    -9.9690     2.3230 ca         1 67Z      -0.162000
     27 CAX          8.9010   -10.2470     3.6700 ca         1 67Z       0.180600
     28 NAC          8.6480   -11.5560     4.0840 nv         1 67Z      -0.977200
     29 CAG          8.9580    -9.2200     4.6020 ca         1 67Z      -0.162000
     30 CAI          9.2160    -7.9270     4.1890 ca         1 67Z      -0.098500
     31 H1          -0.3610     0.8740     0.5280 h1         1 67Z       0.040033
     32 H2          -0.3610    -0.8950     0.4930 h1         1 67Z       0.040033
     33 H3          -0.3610     0.0210    -1.0210 h1         1 67Z       0.040033
     34 H4           0.2090    -0.0070     2.3190 ha         1 67Z       0.135000
     35 H5           1.3290    -0.0060     4.5150 ha         1 67Z       0.135000
     36 H6           3.6950    -0.0020     6.9380 h1         1 67Z       0.039700
     37 H7           2.4530     0.8790     6.0390 h1         1 67Z       0.039700
     38 H8           2.4590    -0.8900     6.0360 h1         1 67Z       0.039700
     39 H9           5.1410     0.0080     2.5700 ha         1 67Z       0.149000
     40 H10          3.7540    -0.5810    -0.7490 h1         1 67Z       0.084700
     41 H11          3.7760     1.6810    -1.2740 hc         1 67Z       0.062700
     42 H12          4.3610     2.1450     0.3490 hc         1 67Z       0.062700
     43 H13          6.3690     2.4120    -0.9360 hc         1 67Z       0.057700
     44 H14          5.9700     1.0280    -2.0000 hc         1 67Z       0.057700
     45 H15          7.4790     0.0070    -0.4350 h1         1 67Z       0.050200
     46 H16          6.8600     0.9840     0.9220 h1         1 67Z       0.050200
     47 H17          7.7050    -1.6480     1.7040 h1         1 67Z       0.069700
     48 H18          7.8070    -2.2000     0.0260 h1         1 67Z       0.069700
     49 H19          6.3800    -4.1500     1.5440 hn         1 67Z       0.333500
     50 H20          7.5500    -6.0700     2.1780 hn         1 67Z       0.314500
     51 H21         10.2980    -6.2570     1.5110 h1         1 67Z       0.056700
     52 H22         10.1950    -5.7060     3.1890 h1         1 67Z       0.056700
     53 H23          9.5010    -8.4560     0.8660 ha         1 67Z       0.135000
     54 H24          9.0530   -10.7680     1.5920 ha         1 67Z       0.136000
     55 H25          7.7630   -11.7890     4.4900 hn         1 67Z       0.429300
     56 H26          9.3500   -12.2600     3.9760 hn         1 67Z       0.429300
     57 H27          8.8080    -9.4330     5.6540 ha         1 67Z       0.136000
     58 H28          9.2610    -7.1260     4.9170 ha         1 67Z       0.135000
@<TRIPOS>BOND
     1     1     2 1
     2     2     3 1
     3     4     3 ar
     4     4     5 ar
     5     3    10 ar
     6     5     6 ar
     7    10    11 1
     8    10     9 ar
     9    11    12 1
    10    11    15 1
    11     6     9 ar
    12     6     7 1
    13    12    13 1
    14    21    20 2
    15     8     7 1
    16    18    19 1
    17    18    16 1
    18    20    19 1
    19    20    22 1
    20    15    16 1
    21    15    14 1
    22    23    22 1
    23    23    24 1
    24    13    14 1
    25    16    17 2
    26    24    25 ar
    27    24    30 ar
    28    25    26 ar
    29    30    29 ar
    30    26    27 ar
    31    29    27 ar
    32    27    28 1
    33     1    31 1
    34     1    32 1
    35     1    33 1
    36     4    34 1
    37     5    35 1
    38     8    36 1
    39     8    37 1
    40     8    38 1
    41     9    39 1
    42    11    40 1
    43    12    41 1
    44    12    42 1
    45    13    43 1
    46    13    44 1
    47    14    45 1
    48    14    46 1
    49    18    47 1
    50    18    48 1
    51    19    49 1
    52    22    50 1
    53    23    51 1
    54    23    52 1
    55    25    53 1
    56    26    54 1
    57    28    55 1
    58    28    56 1
    59    29    57 1
    60    30    58 1
@<TRIPOS>SUBSTRUCTURE
     1 67Z         1 TEMP              0 ****  ****    0 ROOT
