@<TRIPOS>MOLECULE
67Z
   58    60     1     0     0
SMALL
bcc


@<TRIPOS>ATOM
      1 CAB          0.0000     0.0000     0.0000 c3         1 67Z       0.244700
      2 OAU          1.4290     0.0000     0.0000 os         1 67Z      -0.309900
      3 CBA          2.0470     0.0000     1.2110 ca         1 67Z       0.126100
      4 CAK          1.2910    -0.0040     2.3750 ca         1 67Z      -0.162000
      5 CAJ          1.9190    -0.0030     3.6060 ca         1 67Z      -0.166000
      6 CAZ          3.3040     0.0010     3.6780 ca         1 67Z       0.118100
      7 OAT          3.9220     0.0030     4.8890 os         1 67Z      -0.308900
      8 CAA          3.0810    -0.0030     6.0460 c3         1 67Z       0.244700
      9 CAL          4.0590     0.0060     2.5140 ca         1 67Z      -0.097000
     10 CBB          3.4310    -0.0000     1.2840 ca         1 67Z      -0.094300
     11 CBC          4.2520    -0.0030     0.0200 c3         1 67Z       0.102000
     12 CAP          4.4640     1.4450    -0.4710 c3         1 67Z      -0.030400
     13 CAM          5.9250     1.4250    -0.9930 c3         1 67Z      -0.033400
     14 CAQ          6.6000     0.4580     0.0110 c3         1 67Z       0.041000
     15 NBD          5.5810    -0.5710     0.2880 n          1 67Z      -0.155800
     16 C            5.8280    -1.8260     0.7150 c          1 67Z       0.593100
     17 O            4.9080    -2.5910     0.9100 o          1 67Z      -0.646100
     18 CA           7.2460    -2.2760     0.9500 c3         1 67Z      -0.003000
     19 N            7.2470    -3.6690     1.4070 ns         1 67Z      -0.212900
     20 CAV          8.4120    -4.2880     1.6810 c          1 67Z       0.577100
     21 OAD          9.4640    -3.6910     1.5490 o          1 67Z      -0.721100
     22 NAS          8.4130    -5.5680     2.1020 ns         1 67Z      -0.217900
     23 CAO          9.6800    -6.2410     2.4000 c3         1 67Z       0.131300
     24 CAY          9.4050    -7.6530     2.8470 ca         1 67Z      -0.144300
     25 CAH          9.3490    -8.6730     1.9160 ca         1 67Z      -0.068000
     26 CAF          9.0970    -9.9690     2.3230 ca         1 67Z      -0.133500
     27 CAX          8.9010   -10.2470     3.6700 ca         1 67Z       0.041600
     28 NAC          8.6480   -11.5560     4.0840 nv         1 67Z      -0.534200
     29 CAG          8.9580    -9.2200     4.6020 ca         1 67Z      -0.133500
     30 CAI          9.2160    -7.9270     4.1890 ca         1 67Z      -0.068000
     31 H1          -0.3610     0.8740     0.5280 h1         1 67Z      -0.003300
     32 H2          -0.3610    -0.8950     0.4930 h1         1 67Z      -0.003300
     33 H3          -0.3610     0.0210    -1.0210 h1         1 67Z      -0.003300
     34 H4           0.2090    -0.0070     2.3190 ha         1 67Z       0.118000
     35 H5           1.3290    -0.0060     4.5150 ha         1 67Z       0.118000
     36 H6           3.6950    -0.0020     6.9380 h1         1 67Z      -0.003633
     37 H7           2.4530     0.8790     6.0390 h1         1 67Z      -0.003633
     38 H8           2.4590    -0.8900     6.0360 h1         1 67Z      -0.003633
     39 H9           5.1410     0.0080     2.5700 ha         1 67Z       0.119000
     40 H10          3.7540    -0.5810    -0.7490 h1         1 67Z       0.051700
     41 H11          3.7760     1.6810    -1.2740 hc         1 67Z       0.031200
     42 H12          4.3610     2.1450     0.3490 hc         1 67Z       0.031200
     43 H13          6.3690     2.4120    -0.9360 hc         1 67Z       0.026200
     44 H14          5.9700     1.0280    -2.0000 hc         1 67Z       0.026200
     45 H15          7.4790     0.0070    -0.4350 h1         1 67Z       0.022700
     46 H16          6.8600     0.9840     0.9220 h1         1 67Z       0.022700
     47 H17          7.7050    -1.6480     1.7040 h1         1 67Z       0.038200
     48 H18          7.8070    -2.2000     0.0260 h1         1 67Z       0.038200
     49 H19          6.3800    -4.1500     1.5440 hn         1 67Z       0.197500
     50 H20          7.5500    -6.0700     2.1780 hn         1 67Z       0.173500
     51 H21         10.2980    -6.2570     1.5110 h1         1 67Z       0.026200
     52 H22         10.1950    -5.7060     3.1890 h1         1 67Z       0.026200
     53 H23          9.5010    -8.4560     0.8660 ha         1 67Z       0.106500
     54 H24          9.0530   -10.7680     1.5920 ha         1 67Z       0.109000
     55 H25          7.7630   -11.7890     4.4900 hn         1 67Z       0.272300
     56 H26          9.3500   -12.2600     3.9760 hn         1 67Z       0.272300
     57 H27          8.8080    -9.4330     5.6540 ha         1 67Z       0.109000
     58 H28          9.2610    -7.1260     4.9170 ha         1 67Z       0.106500
@<TRIPOS>BOND
     1     1     2 1   
     2     1    31 1   
     3     1    32 1   
     4     1    33 1   
     5     2     3 1   
     6     3     4 ar  
     7     3    10 ar  
     8     4     5 ar  
     9     4    34 1   
    10     5     6 ar  
    11     5    35 1   
    12     6     7 1   
    13     6     9 ar  
    14     7     8 1   
    15     8    36 1   
    16     8    37 1   
    17     8    38 1   
    18     9    10 ar  
    19     9    39 1   
    20    10    11 1   
    21    11    12 1   
    22    11    15 1   
    23    11    40 1   
    24    12    13 1   
    25    12    41 1   
    26    12    42 1   
    27    13    14 1   
    28    13    43 1   
    29    13    44 1   
    30    14    15 1   
    31    14    45 1   
    32    14    46 1   
    33    15    16 1   
    34    16    17 2   
    35    16    18 1   
    36    18    19 1   
    37    18    47 1   
    38    18    48 1   
    39    19    20 1   
    40    19    49 1   
    41    20    21 2   
    42    20    22 1   
    43    22    23 1   
    44    22    50 1   
    45    23    24 1   
    46    23    51 1   
    47    23    52 1   
    48    24    25 ar  
    49    24    30 ar  
    50    25    26 ar  
    51    25    53 1   
    52    26    27 ar  
    53    26    54 1   
    54    27    28 1   
    55    27    29 ar  
    56    28    55 1   
    57    28    56 1   
    58    29    30 ar  
    59    29    57 1   
    60    30    58 1   
@<TRIPOS>SUBSTRUCTURE
     1 67Z         1 TEMP              0 ****  ****    0 ROOT
