@<TRIPOS>MOLECULE
680
   21    21     1     0     0
SMALL
bcc


@<TRIPOS>ATOM
      1 O3           0.0000     0.0000     0.0000 o          1 680      -0.424000
      2 N3           1.2180     0.0000     0.0000 no         1 680       1.074100
      3 O2           1.8270     0.0000     1.0550 o          1 680      -0.424000
      4 C2           1.9590    -0.0010    -1.2820 cc         1 680      -0.704300
      5 C1           1.2840     0.1170    -2.4890 cd         1 680       0.294600
      6 N2          -0.0910     0.2350    -2.5050 nu         1 680      -0.275000
      7 C5          -0.7910     0.4770    -3.7690 c3         1 680       0.169100
      8 N1           1.9710     0.1090    -3.6360 nd         1 680      -0.491300
      9 C4           3.2830     0.0040    -3.6440 cc         1 680       0.112800
     10 N5           3.9490     0.0060    -4.8410 nz         1 680       0.188400
     11 N4           3.9910    -0.1140    -2.4880 ns         1 680       0.030600
     12 C3           3.3520    -0.1180    -1.2990 c          1 680       0.634700
     13 O1           3.9790    -0.2240    -0.2570 o          1 680      -0.548500
     14 HN2         -0.6130     0.1240    -1.6570 hn         1 680       0.385800
     15 H51         -0.6190    -0.3540    -4.4420 h1         1 680       0.030367
     16 H52         -1.8530     0.5760    -3.5810 h1         1 680       0.030367
     17 H53         -0.4180     1.3890    -4.2190 h1         1 680       0.030367
     18 HN51         4.4660    -0.8460    -4.9370 hn         1 680       0.230800
     19 HN52         3.2890     0.0820    -5.5900 hn         1 680       0.230800
     20 HN4          4.9880    -0.1980    -2.5190 hn         1 680       0.193500
     21 H531         4.5780     0.7840    -4.8710 hn         1 680       0.230800
@<TRIPOS>BOND
     1     1     2 1   
     2     2     3 1   
     3     2     4 1   
     4     4     5 2   
     5     4    12 1   
     6     5     6 1   
     7     5     8 1   
     8     6     7 1   
     9     6    14 1   
    10     7    15 1   
    11     7    16 1   
    12     7    17 1   
    13     8     9 2   
    14     9    10 1   
    15     9    11 1   
    16    10    18 1   
    17    10    19 1   
    18    10    21 1   
    19    11    12 1   
    20    11    20 1   
    21    12    13 2   
@<TRIPOS>SUBSTRUCTURE
     1 680         1 TEMP              0 ****  ****    0 ROOT
