@<TRIPOS>MOLECULE
681
   64    66     1     0     0
SMALL
bcc


@<TRIPOS>ATOM
      1 C1          0.8060    1.4000    0.3720 c3        1 681      0.126800
      2 O1          0.8600    2.8170    0.4820 oh        1 681     -0.619800
      3 C2          1.2560    0.7760    1.6460 cc        1 681      0.344700
      4 N1          0.5520    0.3370    2.7060 nd        1 681     -0.287000
      5 O2          2.6280    0.6260    1.9140 os        1 681     -0.424800
      6 N2          1.3880   -0.0980    3.6340 nd        1 681     -0.333000
      7 C3          2.6560    0.0520    3.2010 cc        1 681      0.514700
      8 C4          3.9950   -0.2520    3.7970 c3        1 681     -0.068300
      9 C5          3.8160   -1.0620    5.0730 c3        1 681     -0.097100
     10 C6          4.8160   -1.0420    2.7850 c3        1 681     -0.097100
     11 C7          4.6900    1.0690    4.1060 c3        1 681     -0.097100
     12 CVA         1.6540    1.0660   -0.8810 c3        1 681      0.132500
     13 CVB         1.5870   -0.4080   -1.3190 c3        1 681     -0.074700
     14 CV1         2.1110   -1.3930   -0.3000 c3        1 681     -0.108100
     15 CV2         0.1630   -0.7580   -1.7060 c3        1 681     -0.108100
     16 NV          3.0660    1.5630   -0.7250 n4        1 681     -0.668800
     17 COG         3.7920    1.7600   -2.0230 c         1 681      0.523100
     18 OCG         3.1530    1.7300   -3.0620 o         1 681     -0.407100
     19 CAG         5.3120    1.9240   -1.9360 c3        1 681      0.023000
     20 N2X         5.7630    3.0050   -1.1100 n         1 681     -0.390300
     21 C1X         6.2370    4.2280   -1.6780 cc        1 681      0.488500
     22 N1X         6.8270    5.1630   -0.9600 nd        1 681     -0.523300
     23 C2X         7.0560    4.9530    0.3800 cd        1 681      0.017600
     24 C3X         6.6740    3.7970    1.0480 cc        1 681      0.038800
     25 C4X         5.9290    2.7750    0.2700 c         1 681      0.672700
     26 O1X         5.4020    1.7510    0.7700 o         1 681     -0.702500
     27 N3X         7.0300    3.4950    2.3470 nh        1 681     -0.815600
     28 C5X         6.0360    4.4420   -3.1350 ca        1 681     -0.172900
     29 C6X         4.9730    5.2380   -3.5740 ca        1 681     -0.102500
     30 C7X         4.8180    5.4860   -4.9380 ca        1 681     -0.122500
     31 C8X         5.7240    4.9510   -5.8550 ca        1 681     -0.094000
     32 C9X         6.7930    4.1700   -5.4100 ca        1 681     -0.122500
     33 C0X         6.9550    3.9160   -4.0490 ca        1 681     -0.102500
     34 H11        -0.2530    1.0610    0.1600 h1        1 681      0.121700
     35 HO1         0.2250    3.0870    1.1610 ho        1 681      0.457000
     36 H51         3.2170   -0.4920    5.8230 hc        1 681      0.054811
     37 H52         3.2960   -2.0260    4.8570 hc        1 681      0.054811
     38 H53         4.8200   -1.2840    5.5100 hc        1 681      0.054811
     39 H61         4.2980   -1.9940    2.5170 hc        1 681      0.054811
     40 H62         4.9740   -0.4360    1.8590 hc        1 681      0.054811
     41 H63         5.8120   -1.2890    3.2270 hc        1 681      0.054811
     42 H71         4.1190    1.6430    4.8750 hc        1 681      0.054811
     43 H72         4.7700    1.6790    3.1730 hc        1 681      0.054811
     44 H73         5.7160    0.8650    4.4980 hc        1 681      0.054811
     45 HVA1        1.2010    1.6860   -1.7230 hx        1 681      0.128700
     46 HVB1        2.2200   -0.4930   -2.2530 hc        1 681      0.067700
     47 HV11        2.1640   -2.4100   -0.7630 hc        1 681      0.058367
     48 HV12        3.1320   -1.1240    0.0650 hc        1 681      0.058367
     49 HV13        1.4290   -1.4550    0.5840 hc        1 681      0.058367
     50 HV21       -0.2640    0.0060   -2.4010 hc        1 681      0.058367
     51 HV22        0.1570   -1.7480   -2.2270 hc        1 681      0.058367
     52 HV23       -0.4950   -0.8400   -0.8070 hc        1 681      0.058367
     53 HNV1        3.0330    2.4670   -0.2270 hn        1 681      0.487300
     54 HAG1        5.6700    2.0680   -3.0020 h1        1 681      0.132200
     55 HAG2        5.7230    0.9440   -1.5400 h1        1 681      0.132200
     56 H2X1        7.5900    5.7820    0.8810 h4        1 681      0.195000
     57 H3X1        7.3080    4.2610    2.9170 hn        1 681      0.429300
     58 H3X2        6.5060    2.7770    2.7960 hn        1 681      0.429300
     59 H6X1        4.2770    5.6870   -2.8490 ha        1 681      0.143000
     60 H7X1        3.9860    6.1160   -5.2880 ha        1 681      0.152500
     61 H8X1        5.6030    5.1550   -6.9310 ha        1 681      0.154000
     62 H9X1        7.5170    3.7640   -6.1330 ha        1 681      0.152500
     63 H0X1        7.8160    3.3270   -3.6970 ha        1 681      0.143000
     64 HV2         3.6120    0.9170   -0.1220 hn        1 681      0.487300
@<TRIPOS>BOND
     1    1    2 1   
     2    1    3 1   
     3    1   12 1   
     4    1   34 1   
     5    2   35 1   
     6    3    4 2   
     7    3    5 1   
     8    4    6 1   
     9    5    7 1   
    10    6    7 2   
    11    7    8 1   
    12    8    9 1   
    13    8   10 1   
    14    8   11 1   
    15    9   36 1   
    16    9   37 1   
    17    9   38 1   
    18   10   39 1   
    19   10   40 1   
    20   10   41 1   
    21   11   42 1   
    22   11   43 1   
    23   11   44 1   
    24   12   13 1   
    25   12   16 1   
    26   12   45 1   
    27   13   14 1   
    28   13   15 1   
    29   13   46 1   
    30   14   47 1   
    31   14   48 1   
    32   14   49 1   
    33   15   50 1   
    34   15   51 1   
    35   15   52 1   
    36   16   17 1   
    37   16   53 1   
    38   16   64 1   
    39   17   18 2   
    40   17   19 1   
    41   19   20 1   
    42   19   54 1   
    43   19   55 1   
    44   20   21 1   
    45   20   25 1   
    46   21   22 2   
    47   21   28 1   
    48   22   23 1   
    49   23   24 2   
    50   23   56 1   
    51   24   25 1   
    52   24   27 1   
    53   25   26 2   
    54   27   57 1   
    55   27   58 1   
    56   28   29 ar  
    57   28   33 ar  
    58   29   30 ar  
    59   29   59 1   
    60   30   31 ar  
    61   30   60 1   
    62   31   32 ar  
    63   31   61 1   
    64   32   33 ar  
    65   32   62 1   
    66   33   63 1   
@<TRIPOS>SUBSTRUCTURE
     1 681         1 TEMP              0 ****  ****    0 ROOT
