@<TRIPOS>MOLECULE
molecule
   55    55     1     0     0
SMALL
bcc


@<TRIPOS>ATOM
      1 CX           1.5300     0.0000     0.0000 c3         1 682       0.117800
      2 CY           0.0000     0.0000     0.0000 c3         1 682       0.047700
      3 CZ           2.0320     0.0000     1.4210 cc         1 682       0.414700
      4 OX          -0.2650     0.6160     2.6130 o          1 682      -0.563100
      5 N4          -0.4880     1.2840     0.5090 ns         1 682      -0.537900
      6 O5           2.0060    -1.1680    -0.6720 oh         1 682      -0.576800
      7 C6          -0.5100    -0.2090    -1.4280 c3         1 682      -0.061400
      8 C7          -2.0340    -0.3330    -1.4120 c3         1 682      -0.099400
      9 C8          -2.5440    -0.5410    -2.8390 c3         1 682       0.244800
     10 N9          -4.0040    -0.6600    -2.8250 nu         1 682      -0.861200
     11 C10         -4.6900    -0.8540    -4.0000 c2         1 682       0.687100
     12 N11         -4.0420    -0.9330    -5.1280 n2         1 682      -0.771100
     13 N12         -6.0600    -0.9660    -3.9860 nz         1 682      -0.807600
     14 N13          1.7080    -0.8000     2.4110 nd         1 682      -0.659000
     15 C14          2.2460    -0.6680     3.6050 cd         1 682       0.357200
     16 C15          3.1450     0.3300     3.8010 cc         1 682      -0.128400
     17 S16          3.1810     1.0640     2.1720 ss         1 682      -0.289300
     18 N17         -1.5570     2.5920     3.7810 ns         1 682      -0.525900
     19 C18         -1.2610     2.7400     2.3540 c3         1 682       0.031700
     20 C19         -0.6350     1.4710     1.8360 c          1 682       0.645100
     21 C20         -0.2890     3.9060     2.1530 c3         1 682      -0.109700
     22 C21          0.9870     3.6500     2.9570 c3         1 682      -0.093100
     23 C22          0.0600     4.0280     0.6690 c3         1 682      -0.093100
     24 N24         -2.8020     3.1960     5.6610 nz         1 682      -0.670400
     25 O25         -3.1620     4.1230     3.6740 o          1 682      -0.506100
     26 HX           1.8910     0.8840    -0.5110 h1         1 682       0.037700
     27 HY          -0.0970    -0.8700     0.6380 h1         1 682       0.135700
     28 HN4         -0.0070     1.9170    -0.0980 hn         1 682       0.321500
     29 HO5          2.8850    -1.0180    -0.9790 ho         1 682       0.427000
     30 H61         -0.2230     0.6370    -2.0410 hc         1 682       0.070700
     31 H62         -0.0790    -1.1140    -1.8370 hc         1 682       0.070700
     32 H71         -2.3210    -1.1790    -0.7990 hc         1 682       0.054200
     33 H72         -2.4660     0.5720    -1.0030 hc         1 682       0.054200
     34 H81         -2.2570     0.3040    -3.4520 h1         1 682       0.077200
     35 H82         -2.1120    -1.4470    -3.2480 h1         1 682       0.077200
     36 HN9         -4.5010    -0.6130    -1.9570 hn         1 682       0.451800
     37 H11         -4.5400    -1.0740    -5.9840 hn         1 682       0.445400
     38 H121        -6.4550    -0.1700    -3.5250 hn         1 682       0.468467
     39 H122        -6.4020    -1.0100    -4.9260 hn         1 682       0.468467
     40 H14          1.9740    -1.3360     4.4130 h4         1 682       0.047100
     41 H15          3.6910     0.6040     4.6960 h4         1 682       0.205000
     42 H18         -2.1780     2.9380     1.8130 h1         1 682       0.105700
     43 H20         -1.1040     4.6150     2.0690 hc         1 682       0.097700
     44 H211         1.8380     3.6320     2.2870 hc         1 682       0.053700
     45 H212         1.1190     4.4410     3.6860 hc         1 682       0.053700
     46 H213         0.9080     2.6980     3.4680 hc         1 682       0.053700
     47 H221         0.1610     5.0740     0.4070 hc         1 682       0.053700
     48 H222         0.9950     3.5160     0.4740 hc         1 682       0.053700
     49 H223        -0.7270     3.5810     0.0740 hc         1 682       0.053700
     50 H241        -3.5620     3.7990     5.9080 hn         1 682       0.484800
     51 H242        -3.0550     2.2460     5.8530 hn         1 682       0.484800
     52 C23         -2.5300     3.3320     4.3470 c          1 682       0.590100
     53 H123        -6.3220    -1.7980    -3.4970 hn         1 682       0.468467
     54 H243        -1.9930     3.4410     6.1960 hn         1 682       0.484800
     55 H17         -1.0300     1.9480     4.3370 hn         1 682       0.356500
@<TRIPOS>BOND
     1     1     2 1   
     2     1     3 1   
     3     1     6 1   
     4     1    26 1   
     5     2     5 1   
     6     2     7 1   
     7     2    27 1   
     8     3    14 2   
     9     3    17 1   
    10     4    20 2   
    11     5    20 1   
    12     5    28 1   
    13     6    29 1   
    14     7     8 1   
    15     7    30 1   
    16     7    31 1   
    17     8     9 1   
    18     8    32 1   
    19     8    33 1   
    20     9    10 1   
    21     9    34 1   
    22     9    35 1   
    23    10    11 1   
    24    10    36 1   
    25    11    12 2   
    26    11    13 1   
    27    12    37 1   
    28    13    38 1   
    29    13    39 1   
    30    14    15 1   
    31    15    16 2   
    32    15    40 1   
    33    16    17 1   
    34    16    41 1   
    35    18    19 1   
    36    18    52 1   
    37    18    55 1   
    38    19    20 1   
    39    19    21 1   
    40    19    42 1   
    41    21    22 1   
    42    21    23 1   
    43    21    43 1   
    44    22    44 1   
    45    22    45 1   
    46    22    46 1   
    47    23    47 1   
    48    23    48 1   
    49    23    49 1   
    50    52    24 1   
    51    52    25 2   
    52    24    50 1   
    53    24    51 1   
    54    53    13 1   
    55    54    24 1   
@<TRIPOS>SUBSTRUCTURE
     1 682         1 TEMP              0 ****  ****    0 ROOT
