@<TRIPOS>MOLECULE
molecule
   31    32     1     0     0
SMALL
bcc


@<TRIPOS>ATOM
      1 OX1          0.0000     0.0000     0.0000 o          1 683      -0.839800
      2 CY1          1.2150     0.0000     0.0000 c          1 683       0.890200
      3 OX2          1.8880     0.0000     1.1670 o          1 683      -0.839800
      4 CY2          1.9520    -0.0080    -1.2750 ca         1 683      -0.165600
      5 CY3          3.3450     0.1130    -1.2830 ca         1 683      -0.064000
      6 CY4          4.0280     0.1050    -2.4800 ca         1 683      -0.192300
      7 C4           5.5300     0.2340    -2.4850 c3         1 683      -0.024800
      8 CY5          3.3420    -0.0220    -3.6770 ca         1 683      -0.118000
      9 CY6          1.9680    -0.1430    -3.6860 ca         1 683      -0.229000
     10 CY0          1.2610    -0.1420    -2.4900 ca         1 683       0.213600
     11 N1          -0.1220    -0.2690    -2.4960 nu         1 683      -0.617000
     12 CX2         -0.8510     0.1260    -3.6120 ca         1 683       0.213600
     13 CX3         -0.3440     1.0910    -4.4720 ca         1 683      -0.230000
     14 CX4         -1.0690     1.4820    -5.5790 ca         1 683      -0.126000
     15 CX5         -2.3070     0.9150    -5.8420 ca         1 683      -0.232000
     16 CX6         -2.8270    -0.0440    -5.0000 ca         1 683      -0.069000
     17 CX1         -2.1020    -0.4540    -3.8790 ca         1 683      -0.166600
     18 CX0         -2.6520    -1.4790    -2.9750 c          1 683       0.890200
     19 OY1         -1.9740    -1.9130    -2.0640 o          1 683      -0.840300
     20 OY2         -3.9070    -1.9370    -3.1580 o          1 683      -0.840300
     21 H2           3.8910     0.1540    -0.3480 ha         1 683       0.142000
     22 H3           5.8260     1.0360    -1.8190 hc         1 683       0.014700
     23 H4           5.9740    -0.6950    -2.1510 hc         1 683       0.014700
     24 H5           5.8690     0.4560    -3.4900 hc         1 683       0.014700
     25 H6           3.8890    -0.0250    -4.6130 ha         1 683       0.088000
     26 H7           1.4410    -0.2440    -4.6270 ha         1 683       0.131000
     27 H8          -0.5930    -0.6600    -1.7040 hn         1 683       0.540800
     28 H9           0.6230     1.5380    -4.2740 ha         1 683       0.130000
     29 H10         -0.6690     2.2350    -6.2470 ha         1 683       0.086000
     30 H11         -2.8700     1.2300    -6.7120 ha         1 683       0.085000
     31 H12         -3.7940    -0.4850    -5.2120 ha         1 683       0.139000
@<TRIPOS>BOND
     1    19    18 1   
     2    20    18 1   
     3    18    17 1   
     4     1     2 1   
     5     2     4 1   
     6     2     3 1   
     7    11    10 1   
     8    11    12 1   
     9    17    16 ar  
    10    17    12 ar  
    11     4    10 ar  
    12     4     5 ar  
    13    10     9 ar  
    14     5     6 ar  
    15     9     8 ar  
    16    16    15 ar  
    17    12    13 ar  
    18     6     8 ar  
    19     6     7 1   
    20    15    14 ar  
    21    13    14 ar  
    22     5    21 1   
    23     7    22 1   
    24     7    23 1   
    25     7    24 1   
    26     8    25 1   
    27     9    26 1   
    28    11    27 1   
    29    13    28 1   
    30    14    29 1   
    31    15    30 1   
    32    16    31 1   
@<TRIPOS>SUBSTRUCTURE
     1 683         1 TEMP              0 ****  ****    0 ROOT
