@<TRIPOS>MOLECULE
molecule
   57    61     1     0     0
SMALL
bcc


@<TRIPOS>ATOM
      1 N1           0.0000     0.0000     0.0000 nb         1 684      -0.801000
      2 C2           1.3180     0.0000     0.0000 ca         1 684       0.970900
      3 N2           1.9730     0.0010    -1.2170 nv         1 684      -0.987500
      4 N3           2.0520     0.0000     1.1100 nb         1 684      -0.816000
      5 C4           1.4880    -0.0010     2.3080 ca         1 684       0.749900
      6 N4           2.2500    -0.0010     3.4560 nv         1 684      -1.068500
      7 N5          -0.6330    -0.0030     3.5260 nb         1 684      -0.582000
      8 C6          -1.9490    -0.0020     3.5240 ca         1 684       0.274300
      9 C7          -2.6580    -0.0020     2.3220 ca         1 684       0.364900
     10 N8          -2.0260    -0.0020     1.1680 nb         1 684      -0.655000
     11 C9          -2.6980    -0.0040     4.8310 c3         1 684      -0.058000
     12 N10         -2.8370    -1.3840     5.3150 na         1 684      -0.060300
     13 C4A          0.0240    -0.0020     2.3710 ca         1 684       0.060000
     14 C8A         -0.6910    -0.0010     1.1470 ca         1 684       0.635000
     15 OAC         -5.2270    -2.3570    15.4100 o          1 684      -0.850300
     16 OAD         -3.5250    -3.4410    16.3080 o          1 684      -0.850300
     17 CAE         -5.1280    -3.7120     2.7040 ca         1 684      -0.131000
     18 CAF         -3.8740    -4.0320     2.9490 ca         1 684      -0.122000
     19 CAG         -2.8980    -2.1240     8.9000 ca         1 684      -0.178000
     20 CAH         -5.7190    -2.5220     3.3390 ca         1 684      -0.111000
     21 CAI         -3.0680    -3.2060     3.8630 ca         1 684      -0.104000
     22 CAJ         -2.4890    -2.0650     7.6530 ca         1 684      -0.080000
     23 CAK         -5.5780    -0.5840     4.7710 cc         1 684      -0.140000
     24 CAL         -5.3350    -0.2000     5.9790 cd         1 684      -0.098000
     25 CAN         -4.9300    -0.9470     8.3560 ca         1 684      -0.193000
     26 CAO         -4.4240    -2.2150    12.8870 c3         1 684      -0.062400
     27 CAP         -3.7750    -2.2460    11.5020 c3         1 684       0.123400
     28 CAQ         -3.5100    -2.9140    13.8960 c3         1 684      -0.182400
     29 CAX         -4.1500    -2.8840    15.2590 c          1 684       0.892600
     30 CBA         -4.1940    -1.5320     9.2710 ca         1 684       0.157100
     31 CBC         -4.9950    -1.7820     4.1530 ca         1 684      -0.074000
     32 CBD         -4.4700    -0.8750     6.9510 ca         1 684      -0.038000
     33 CBF         -3.6000    -2.1450     4.4380 ca         1 684      -0.030200
     34 CBG         -3.3200    -1.4080     6.6200 ca         1 684      -0.058200
     35 HN2          2.9630    -0.1420    -1.2530 hn         1 684       0.450800
     36 HN2A         1.4550     0.1340    -2.0630 hn         1 684       0.450800
     37 HN4          2.5390    -0.8680     3.8640 hn         1 684       0.450800
     38 HN4A         2.5380     0.8650     3.8650 hn         1 684       0.450800
     39 H7          -3.7410    -0.0010     2.3400 h4         1 684       0.039100
     40 H9          -3.6810     0.4270     4.6840 h1         1 684       0.065700
     41 H9A         -2.1520     0.5810     5.5610 h1         1 684       0.065700
     42 HAE         -5.7210    -4.3190     2.0310 ha         1 684       0.128000
     43 HAF         -3.4380    -4.9070     2.4830 ha         1 684       0.130000
     44 HAG         -2.2850    -2.6090     9.6500 ha         1 684       0.148000
     45 HAH         -6.7500    -2.2580     3.1390 ha         1 684       0.131000
     46 HAI         -2.0370    -3.4710     4.0640 ha         1 684       0.148000
     47 HAJ         -1.5360    -2.5000     7.3790 ha         1 684       0.140000
     48 HAK         -6.2560     0.0150     4.1750 ha         1 684       0.126000
     49 HAL         -5.8190     0.7120     6.3070 ha         1 684       0.128000
     50 HAN         -5.8830    -0.5120     8.6310 ha         1 684       0.147000
     51 HAO         -5.3780    -2.7260    12.8500 hc         1 684       0.061200
     52 HAOA        -4.5770    -1.1870    13.1920 hc         1 684       0.061200
     53 HAP         -3.6220    -3.2740    11.1980 h1         1 684       0.024200
     54 HAPA        -2.8210    -1.7340    11.5400 h1         1 684       0.024200
     55 HAQ         -2.5560    -2.4040    13.9330 hc         1 684       0.028700
     56 HAQA        -3.3580    -3.9430    13.5920 hc         1 684       0.028700
     57 OAW         -4.6280    -1.5930    10.5610 os         1 684      -0.324900
@<TRIPOS>BOND
     1     2     1 ar
     2     1    14 ar
     3     4     2 ar
     4     3     2 1
     5     3    35 1
     6     3    36 1
     7     4     5 ar
     8     6     5 1
     9     5    13 ar
    10     6    37 1
    11     6    38 1
    12    13     7 ar
    13     7     8 ar
    14     8    11 1
    15     8     9 ar
    16    10     9 ar
    17     9    39 1
    18    14    10 ar
    19    11    12 1
    20    11    40 1
    21    11    41 1
    22    12    34 1
    23    12    33 1
    24    13    14 ar
    25    29    15 1
    26    29    16 1
    27    18    17 ar
    28    17    20 ar
    29    17    42 1
    30    21    18 ar
    31    18    43 1
    32    22    19 ar
    33    19    30 ar
    34    19    44 1
    35    31    20 ar
    36    20    45 1
    37    21    33 ar
    38    21    46 1
    39    22    34 ar
    40    22    47 1
    41    31    23 1
    42    24    23 2
    43    23    48 1
    44    32    24 1
    45    24    49 1
    46    30    25 ar
    47    32    25 ar
    48    25    50 1
    49    27    26 1
    50    26    28 1
    51    26    51 1
    52    26    52 1
    53    57    27 1
    54    27    53 1
    55    27    54 1
    56    28    29 1
    57    28    55 1
    58    28    56 1
    59    30    57 1
    60    33    31 ar
    61    34    32 ar
@<TRIPOS>SUBSTRUCTURE
     1 684         1 TEMP              0 ****  ****    0 ROOT
