@<TRIPOS>MOLECULE
molecule
   51    53     1     0     0
SMALL
bcc


@<TRIPOS>ATOM
      1 C1           0.0000     0.0000     0.0000 c3         1 685      -0.104100
      2 C2           1.5300     0.0000     0.0000 c3         1 685       0.123700
      3 C4           2.0410     0.0000     1.4420 c3         1 685       0.123400
      4 O5           1.4720    -1.1040     2.1490 oh         1 685      -0.613800
      5 N6           2.0190    -1.1950    -0.6910 ns         1 685      -0.574900
      6 C7           2.1460    -1.1930    -2.0340 c          1 685       0.712700
      7 O8           1.8560    -0.1980    -2.6700 o          1 685      -0.607100
      8 C9           2.6360    -2.3910    -2.7260 cc         1 685      -0.243000
      9 S10          3.0930    -3.9150    -1.9690 ss         1 685      -0.101300
     10 C11          3.4780    -4.5730    -3.4990 cc         1 685       0.397400
     11 N12          3.2670    -3.6970    -4.4390 nd         1 685      -0.683000
     12 C13          2.8140    -2.5260    -4.0770 cd         1 685       0.448600
     13 C14          2.5180    -1.4220    -5.0590 c3         1 685      -0.116400
     14 C15          3.9820    -5.9460    -3.7230 ca         1 685       0.465300
     15 C16          4.2750    -6.3920    -5.0160 ca         1 685      -0.388600
     16 C17          4.7440    -7.6840    -5.1760 ca         1 685       0.490200
     17 N18          4.9000    -8.4540    -4.1110 nb         1 685      -0.774000
     18 C19          4.6140    -8.0050    -2.8970 ca         1 685       0.943900
     19 N20          4.7920    -8.8430    -1.8090 nu         1 685      -0.757300
     20 C21          5.3760   -10.1010    -1.9830 ca         1 685       0.164600
     21 C22          6.4390   -10.2590    -2.8630 ca         1 685      -0.144000
     22 C23          7.0140   -11.5030    -3.0320 ca         1 685      -0.063800
     23 C24          8.1680   -11.6760    -3.9870 c3         1 685      -0.046300
     24 C25          6.5310   -12.5910    -2.3290 ca         1 685      -0.144000
     25 C26          5.4720   -12.4370    -1.4520 ca         1 685      -0.063800
     26 C27          4.9490   -13.6260    -0.6870 c3         1 685      -0.046300
     27 C28          4.8970   -11.1940    -1.2730 ca         1 685      -0.144000
     28 N29          4.1690    -6.7740    -2.6970 nb         1 685      -0.799000
     29 H1          -0.3610    -0.9480     0.3790 hc         1 685       0.047367
     30 H1A         -0.3610     0.8030     0.6320 hc         1 685       0.047367
     31 H1B         -0.3610     0.1460    -1.0110 hc         1 685       0.047367
     32 H2           1.8900     0.8850    -0.5100 h1         1 685       0.082700
     33 H4           1.7550     0.9260     1.9260 h1         1 685       0.031700
     34 H4A          3.1210    -0.0890     1.4420 h1         1 685       0.031700
     35 HO5          1.7950    -1.1100     3.0340 ho         1 685       0.406000
     36 HN6          2.2710    -2.0080    -0.1660 hn         1 685       0.323500
     37 H14          2.7430    -1.7620    -6.0630 hc         1 685       0.062033
     38 H14A         1.4710    -1.1530    -4.9950 hc         1 685       0.062033
     39 H14B         3.1290    -0.5580    -4.8260 hc         1 685       0.062033
     40 H16          4.1380    -5.7410    -5.8710 ha         1 685       0.169000
     41 H17          4.9810    -8.0620    -6.1630 h4         1 685       0.035100
     42 HN20         4.5150    -8.5420    -0.8950 hn         1 685       0.466800
     43 H22          6.8600    -9.3960    -3.3630 ha         1 685       0.139500
     44 H24          8.8110   -10.8050    -3.9360 hc         1 685       0.043367
     45 H24A         7.7880   -11.7860    -4.9950 hc         1 685       0.043367
     46 H24B         8.7330   -12.5590    -3.7140 hc         1 685       0.043367
     47 H25          6.9830   -13.5660    -2.4630 ha         1 685       0.131000
     48 H27          4.2880   -14.2020    -1.3230 hc         1 685       0.043367
     49 H27A         4.4040   -13.2830     0.1840 hc         1 685       0.043367
     50 H27B         5.7790   -14.2460    -0.3720 hc         1 685       0.043367
     51 H28          4.0680   -11.0740    -0.5870 ha         1 685       0.139500
@<TRIPOS>BOND
     1     1     2 1
     2     1    29 1
     3     1    30 1
     4     1    31 1
     5     2     3 1
     6     2     5 1
     7     2    32 1
     8     4     3 1
     9     3    33 1
    10     3    34 1
    11     4    35 1
    12     5     6 1
    13     5    36 1
    14     7     6 2
    15     6     8 1
    16     8    12 2
    17     8     9 1
    18     9    10 1
    19    11    10 2
    20    10    14 1
    21    12    11 1
    22    13    12 1
    23    13    37 1
    24    13    38 1
    25    13    39 1
    26    14    28 ar
    27    14    15 ar
    28    15    16 ar
    29    15    40 1
    30    16    17 ar
    31    16    41 1
    32    18    17 ar
    33    28    18 ar
    34    18    19 1
    35    20    19 1
    36    19    42 1
    37    21    20 ar
    38    20    27 ar
    39    22    21 ar
    40    21    43 1
    41    23    22 1
    42    22    24 ar
    43    23    44 1
    44    23    45 1
    45    23    46 1
    46    24    25 ar
    47    24    47 1
    48    25    26 1
    49    25    27 ar
    50    26    48 1
    51    26    49 1
    52    26    50 1
    53    27    51 1
@<TRIPOS>SUBSTRUCTURE
     1 685         1 TEMP              0 ****  ****    0 ROOT
