@<TRIPOS>MOLECULE
molecule
   75    78     1     0     0
SMALL
bcc


@<TRIPOS>ATOM
      1 O76          0.0000     0.0000     0.0000 o          1 687      -0.635100
      2 C1           3.3330    -0.0000     3.6740 ca         1 687      -0.094000
      3 C2           4.0320     0.0000     2.4840 ca         1 687      -0.148000
      4 C3           3.3500     0.0010     1.2770 ca         1 687       0.262100
      5 C4           1.9470     0.0010     1.2720 ca         1 687      -0.237600
      6 C5           1.2520    -0.0060     2.4870 ca         1 687      -0.072000
      7 C6           1.9480    -0.0000     3.6750 ca         1 687      -0.185300
      8 P7           4.6250     1.4870    -0.0870 p5         1 687       1.097900
      9 O8           5.4650     1.8400     1.0790 o          1 687      -0.875500
     10 O9           5.5170     1.5400    -1.4270 o          1 687      -0.875500
     11 O10          3.4090     2.5330    -0.2100 o          1 687      -0.875500
     12 C11          1.1980    -0.0010     4.9820 c3         1 687      -0.030100
     13 C12          0.9450     1.4420     5.4250 c3         1 687       0.065700
     14 C13          0.1950     1.4420     6.7310 c          1 687       0.627100
     15 N14         -1.1520     1.4420     6.7350 ns         1 687      -0.608900
     16 N15          2.2250     2.1320     5.5960 ns         1 687      -0.558900
     17 C16          3.1250     1.6720     6.4870 c          1 687       0.668100
     18 C17          4.4420     2.3820     6.6630 c3         1 687      -0.168100
     19 O18          2.8750     0.6860     7.1460 o          1 687      -0.605100
     20 O19          0.8060     1.4420     7.7800 o          1 687      -0.560100
     21 C20         -1.8810     1.4420     8.0070 c3         1 687       0.055700
     22 C21         -3.3520     1.7820     7.7560 c3         1 687      -0.090400
     23 C22         -3.8180     1.2080     6.4310 c3         1 687      -0.085400
     24 C23         -3.8580    -0.3090     6.4010 c3         1 687      -0.106400
     25 C24         -2.4470    -0.8920     6.4910 c3         1 687       0.089000
     26 N25         -2.0790    -1.0190     7.9100 n          1 687      -0.473800
     27 C26         -1.8020     0.0680     8.6380 c          1 687       0.704500
     28 C27         -2.0100    -2.3440     8.5300 c3         1 687       0.157300
     29 C28         -0.6180    -2.8980     8.3780 ca         1 687      -0.114300
     30 O29         -1.4950    -0.0480     9.8050 o          1 687      -0.654500
     31 C53         -0.2960    -3.6590     7.2690 ca         1 687      -0.107500
     32 C54          0.9790    -4.1650     7.1220 ca         1 687      -0.113000
     33 C55          1.9410    -3.9160     8.0990 cp         1 687      -0.031000
     34 C56          1.6110    -3.1530     9.2160 ca         1 687      -0.113000
     35 C57          0.3330    -2.6480     9.3490 ca         1 687      -0.107500
     36 C62          3.3140    -4.4620     7.9490 cp         1 687      -0.030000
     37 C63          4.4160    -3.6890     8.3040 ca         1 687      -0.112000
     38 C64          5.6890    -4.2040     8.1690 ca         1 687      -0.131500
     39 C65          5.8730    -5.4800     7.6700 ca         1 687      -0.133000
     40 C66          4.7810    -6.2500     7.3090 ca         1 687      -0.131500
     41 C67          3.5040    -5.7470     7.4460 ca         1 687      -0.112000
     42 C75          1.2130     0.0000     0.0000 c          1 687       0.634500
     43 H1           3.8710     0.0010     4.6140 ha         1 687       0.108000
     44 H2           5.1160     0.0000     2.4940 ha         1 687       0.177000
     45 H5           0.1690    -0.0060     2.4930 ha         1 687       0.109000
     46 H111         0.2510    -0.5110     4.8550 hc         1 687       0.054200
     47 H112         1.7860    -0.5120     5.7350 hc         1 687       0.054200
     48 H12          0.3580     1.9530     4.6710 h1         1 687       0.066700
     49 H14         -1.6540     1.5140     5.8720 hn         1 687       0.323500
     50 H15          2.4150     2.9680     5.0800 hn         1 687       0.332500
     51 H171         4.6340     3.0060     5.7990 hc         1 687       0.057033
     52 H172         4.4030     2.9990     7.5530 hc         1 687       0.057033
     53 H173         5.2350     1.6510     6.7650 hc         1 687       0.057033
     54 H20         -1.4500     2.1740     8.6790 h1         1 687       0.098700
     55 H211        -3.9540     1.3660     8.5550 hc         1 687       0.050200
     56 H212        -3.4690     2.8590     7.7380 hc         1 687       0.050200
     57 H221        -4.8140     1.5830     6.2250 hc         1 687       0.042700
     58 H222        -3.1470     1.5510     5.6530 hc         1 687       0.042700
     59 H231        -4.4440    -0.6650     7.2400 hc         1 687       0.046700
     60 H232        -4.3180    -0.6330     5.4750 hc         1 687       0.046700
     61 H241        -2.4290    -1.8690     6.0230 h1         1 687       0.070700
     62 H242        -1.7490    -0.2310     5.9920 h1         1 687       0.070700
     63 H271        -2.2530    -2.2630     9.5830 h1         1 687       0.052700
     64 H272        -2.7170    -3.0060     8.0460 h1         1 687       0.052700
     65 H53         -1.0450    -3.8520     6.5100 ha         1 687       0.135000
     66 H54          1.2300    -4.7590     6.2510 ha         1 687       0.133500
     67 H56          2.3550    -2.9560     9.9790 ha         1 687       0.133500
     68 H57          0.0750    -2.0540    10.2180 ha         1 687       0.135000
     69 H63          4.2750    -2.6890     8.6950 ha         1 687       0.138000
     70 H64          6.5470    -3.6040     8.4470 ha         1 687       0.123500
     71 H65          6.8740    -5.8790     7.5630 ha         1 687       0.120000
     72 H66          4.9300    -7.2490     6.9180 ha         1 687       0.123500
     73 H67          2.6500    -6.3510     7.1630 ha         1 687       0.138000
     74 H75          1.7550     0.0080    -0.9380 h4         1 687       0.033200
     75 O30          4.0370     0.0010     0.1070 os         1 687      -0.420500
@<TRIPOS>BOND
     1     1    42 2
     2     2     3 ar
     3     2     7 ar
     4     2    43 1
     5     3     4 ar
     6     3    44 1
     7     4     5 ar
     8     4    75 1
     9     5     6 ar
    10     5    42 1
    11     6     7 ar
    12     6    45 1
    13     7    12 1
    14     8     9 1
    15     8    10 1
    16     8    11 1
    17     8    75 1
    18    12    13 1
    19    12    46 1
    20    12    47 1
    21    13    14 1
    22    13    16 1
    23    13    48 1
    24    14    15 1
    25    14    20 2
    26    15    21 1
    27    15    49 1
    28    16    17 1
    29    16    50 1
    30    17    18 1
    31    17    19 2
    32    18    51 1
    33    18    52 1
    34    18    53 1
    35    21    22 1
    36    21    27 1
    37    21    54 1
    38    22    23 1
    39    22    55 1
    40    22    56 1
    41    23    24 1
    42    23    57 1
    43    23    58 1
    44    24    25 1
    45    24    59 1
    46    24    60 1
    47    25    26 1
    48    25    61 1
    49    25    62 1
    50    26    27 1
    51    26    28 1
    52    27    30 2
    53    28    29 1
    54    28    63 1
    55    28    64 1
    56    29    31 ar
    57    29    35 ar
    58    31    32 ar
    59    31    65 1
    60    32    33 ar
    61    32    66 1
    62    33    34 ar
    63    33    36 1
    64    34    35 ar
    65    34    67 1
    66    35    68 1
    67    36    37 ar
    68    36    41 ar
    69    37    38 ar
    70    37    69 1
    71    38    39 ar
    72    38    70 1
    73    39    40 ar
    74    39    71 1
    75    40    41 ar
    76    40    72 1
    77    41    73 1
    78    42    74 1
@<TRIPOS>SUBSTRUCTURE
     1 687         1 TEMP              0 ****  ****    0 ROOT
