@<TRIPOS>MOLECULE
molecule
   49    52     1     0     0
SMALL
bcc


@<TRIPOS>ATOM
      1 C1           0.0000     0.0000     0.0000 ca         1 688      -0.225300
      2 C2           1.3970     0.0000     0.0000 ca         1 688      -0.057600
      3 C3           2.0590     0.0000     1.2310 ca         1 688      -0.196300
      4 C4           1.3100    -0.0010     2.3980 ca         1 688       0.587600
      5 N5          -0.0110     0.0050     2.3560 nb         1 688      -0.753000
      6 C6          -0.6750    -0.0010     1.2130 ca         1 688       0.537600
      7 O1           1.9420    -0.0020     3.5980 os         1 688      -0.331400
      8 O2          -2.0310    -0.0010     1.2240 os         1 688      -0.286400
      9 C7           2.1560     0.0000    -1.2720 c          1 688       0.874200
     10 O3           3.5020     0.0010    -1.2510 o          1 688      -0.803800
     11 O4           1.5650     0.0000    -2.3320 o          1 688      -0.803800
     12 C11         -2.4230    -1.2960     1.3610 ca         1 688       0.138100
     13 C12         -1.4820    -2.3080     1.3430 ca         1 688      -0.092000
     14 C13         -1.8880    -3.6360     1.4800 ca         1 688      -0.174900
     15 C14         -3.2410    -3.9360     1.6450 ca         1 688      -0.162000
     16 C15         -4.1750    -2.9220     1.6670 ca         1 688      -0.131000
     17 C16         -3.7720    -1.6020     1.5270 ca         1 688       0.133100
     18 C17         -0.8860    -4.7230     1.4550 ce         1 688       0.533800
     19 N11          0.3850    -4.4370     1.4130 n2         1 688      -0.653100
     20 N12         -1.2960    -6.0390     1.4760 nz         1 688      -0.800600
     21 O11         -4.6950    -0.6050     1.5490 oh         1 688      -0.488100
     22 C21          2.0630     1.2980     3.9790 ca         1 688       0.120100
     23 C22          1.4740     2.3000     3.2200 ca         1 688      -0.179000
     24 C23          1.5950     3.6240     3.6030 ca         1 688      -0.089000
     25 C24          2.3010     3.9560     4.7410 ca         1 688      -0.161000
     26 C25          2.8960     2.9540     5.5090 ca         1 688      -0.087500
     27 C26          2.7680     1.6200     5.1260 ca         1 688      -0.115000
     28 C27          3.6520     3.3080     6.7300 cc         1 688       0.462000
     29 N21          3.7580     4.5550     7.2720 na         1 688      -0.289900
     30 N22          4.3350     2.4720     7.4810 nd         1 688      -0.687000
     31 C28          4.8910     3.1440     8.4950 cd         1 688       0.312200
     32 C29          4.5420     4.4420     8.3880 cc         1 688      -0.276600
     33 H1          -0.5490    -0.0020    -0.9340 ha         1 688       0.173000
     34 H3           3.1410    -0.0030     1.2730 ha         1 688       0.191000
     35 H12         -0.4330    -2.0710     1.2140 ha         1 688       0.203000
     36 H14         -3.5580    -4.9660     1.7530 ha         1 688       0.096000
     37 H15         -5.2250    -3.1570     1.7960 ha         1 688       0.156000
     38 HN11         1.0640    -5.1720     1.3960 hn         1 688       0.429400
     39 H121        -1.7680    -6.2280     2.3380 hn         1 688       0.459133
     40 H122        -0.4980    -6.6390     1.3940 hn         1 688       0.459133
     41 HO11        -5.2050    -0.6310     0.7560 ho         1 688       0.431000
     42 H22          0.9190     2.0450     2.3260 ha         1 688       0.157000
     43 H23          1.1330     4.4020     3.0070 ha         1 688       0.137000
     44 H24          2.3950     4.9940     5.0370 ha         1 688       0.117000
     45 H26          3.2280     0.8380     5.7180 ha         1 688       0.165000
     46 HN21         3.3410     5.3940     6.9210 hn         1 688       0.300700
     47 H28          5.5110     2.7170     9.2740 h4         1 688       0.038100
     48 H29          4.8300     5.2440     9.0560 h4         1 688       0.171000
     49 H123        -1.9170    -6.2080     0.7090 hn         1 688       0.459133
@<TRIPOS>BOND
     1     1     2 ar  
     2     1     6 ar  
     3     1    33 1   
     4     2     3 ar  
     5     2     9 1   
     6     3     4 ar  
     7     3    34 1   
     8     4     5 ar  
     9     4     7 1   
    10     5     6 ar  
    11     6     8 1   
    12     7    22 1   
    13     8    12 1   
    14     9    10 1   
    15     9    11 1   
    16    12    13 ar  
    17    12    17 ar  
    18    13    14 ar  
    19    13    35 1   
    20    14    15 ar  
    21    14    18 1   
    22    15    16 ar  
    23    15    36 1   
    24    16    17 ar  
    25    16    37 1   
    26    17    21 1   
    27    18    19 2   
    28    18    20 1   
    29    19    38 1   
    30    20    39 1   
    31    20    40 1   
    32    21    41 1   
    33    22    23 ar  
    34    22    27 ar  
    35    23    24 ar  
    36    23    42 1   
    37    24    25 ar  
    38    24    43 1   
    39    25    26 ar  
    40    25    44 1   
    41    26    27 ar  
    42    26    28 1   
    43    27    45 1   
    44    28    29 1   
    45    28    30 2   
    46    29    32 1   
    47    29    46 1   
    48    30    31 1   
    49    31    32 2   
    50    31    47 1   
    51    32    48 1   
    52    49    20 1   
@<TRIPOS>SUBSTRUCTURE
     1 688         1 TEMP              0 ****  ****    0 ROOT
