@<TRIPOS>MOLECULE
688
   49    52     1     0     0
SMALL
bcc


@<TRIPOS>ATOM
      1 C1           0.0000     0.0000     0.0000 ca         1 688      -0.211300
      2 C2           1.3970     0.0000     0.0000 ca         1 688      -0.053600
      3 C3           2.0590     0.0000     1.2310 ca         1 688      -0.180300
      4 C4           1.3100    -0.0010     2.3980 ca         1 688       0.536600
      5 N5          -0.0110     0.0050     2.3560 nb         1 688      -0.630000
      6 C6          -0.6750    -0.0010     1.2130 ca         1 688       0.488600
      7 O1           1.9420    -0.0020     3.5980 os         1 688      -0.325400
      8 O2          -2.0310    -0.0010     1.2240 os         1 688      -0.273400
      9 C7           2.1560     0.0000    -1.2720 c          1 688       0.957200
     10 O3           3.5020     0.0010    -1.2510 o          1 688      -0.848800
     11 O4           1.5650     0.0000    -2.3320 o          1 688      -0.848800
     12 C11         -2.4230    -1.2960     1.3610 ca         1 688       0.162100
     13 C12         -1.4820    -2.3080     1.3430 ca         1 688      -0.134000
     14 C13         -1.8880    -3.6360     1.4800 ca         1 688      -0.204900
     15 C14         -3.2410    -3.9360     1.6450 ca         1 688      -0.130000
     16 C15         -4.1750    -2.9220     1.6670 ca         1 688      -0.103000
     17 C16         -3.7720    -1.6020     1.5270 ca         1 688       0.143100
     18 C17         -0.8860    -4.7230     1.4550 ce         1 688       0.198800
     19 N11          0.3850    -4.4370     1.4130 n2         1 688      -0.479100
     20 N12         -1.2960    -6.0390     1.4760 nz         1 688       0.192400
     21 O11         -4.6950    -0.6050     1.5490 oh         1 688      -0.469100
     22 C21          2.0630     1.2980     3.9790 ca         1 688       0.138100
     23 C22          1.4740     2.3000     3.2200 ca         1 688      -0.187000
     24 C23          1.5950     3.6240     3.6030 ca         1 688      -0.048000
     25 C24          2.3010     3.9560     4.7410 ca         1 688      -0.155000
     26 C25          2.8960     2.9540     5.5090 ca         1 688      -0.074500
     27 C26          2.7680     1.6200     5.1260 ca         1 688      -0.106000
     28 C27          3.6520     3.3080     6.7300 cc         1 688       0.249000
     29 N21          3.7580     4.5550     7.2720 na         1 688       0.262100
     30 N22          4.3350     2.4720     7.4810 nd         1 688      -0.609000
     31 C28          4.8910     3.1440     8.4950 cd         1 688       0.324200
     32 C29          4.5420     4.4420     8.3880 cc         1 688      -0.450600
     33 H1          -0.5490    -0.0020    -0.9340 ha         1 688       0.149000
     34 H3           3.1410    -0.0030     1.2730 ha         1 688       0.165000
     35 H12         -0.4330    -2.0710     1.2140 ha         1 688       0.156000
     36 H14         -3.5580    -4.9660     1.7530 ha         1 688       0.077000
     37 H15         -5.2250    -3.1570     1.7960 ha         1 688       0.125000
     38 HN11         0.6840    -3.4820     1.3980 hn         1 688       0.395400
     39 H121        -0.4970    -6.6390     1.4100 hn         1 688       0.216133
     40 H122        -1.7810    -6.2240     2.3320 hn         1 688       0.216133
     41 HO11        -5.2050    -0.6310     0.7560 ho         1 688       0.413000
     42 H22          0.9190     2.0450     2.3260 ha         1 688       0.137000
     43 H23          1.1330     4.4020     3.0070 ha         1 688       0.104000
     44 H24          2.3950     4.9940     5.0370 ha         1 688       0.093000
     45 H26          3.2280     0.8380     5.7180 ha         1 688       0.137000
     46 HN21         3.3410     5.3940     6.9210 hn         1 688       0.123700
     47 H28          5.5110     2.7170     9.2740 h4         1 688       0.000100
     48 H29          4.8300     5.2440     9.0560 h4         1 688       0.150000
     49 H123        -1.9050    -6.2120     0.7010 hn         1 688       0.216133
@<TRIPOS>BOND
     1     1     2 ar  
     2     1     6 ar  
     3     1    33 1   
     4     2     3 ar  
     5     2     9 1   
     6     3     4 ar  
     7     3    34 1   
     8     4     5 ar  
     9     4     7 1   
    10     5     6 ar  
    11     6     8 1   
    12     7    22 1   
    13     8    12 1   
    14     9    10 1   
    15     9    11 1   
    16    12    13 ar  
    17    12    17 ar  
    18    13    14 ar  
    19    13    35 1   
    20    14    15 ar  
    21    14    18 1   
    22    15    16 ar  
    23    15    36 1   
    24    16    17 ar  
    25    16    37 1   
    26    17    21 1   
    27    18    19 2   
    28    18    20 1   
    29    19    38 1   
    30    20    39 1   
    31    20    40 1   
    32    20    49 1   
    33    21    41 1   
    34    22    23 ar  
    35    22    27 ar  
    36    23    24 ar  
    37    23    42 1   
    38    24    25 ar  
    39    24    43 1   
    40    25    26 ar  
    41    25    44 1   
    42    26    27 ar  
    43    26    28 1   
    44    27    45 1   
    45    28    29 1   
    46    28    30 2   
    47    29    32 1   
    48    29    46 1   
    49    30    31 1   
    50    31    32 2   
    51    31    47 1   
    52    32    48 1   
@<TRIPOS>SUBSTRUCTURE
     1 688         1 TEMP              0 ****  ****    0 ROOT
