@<TRIPOS>MOLECULE
689
   45    47     1     0     0
SMALL
bcc


@<TRIPOS>ATOM
      1 CAN         0.0810    0.1650   -0.1360 c3        1 689     -0.090100
      2 CAK         1.5750   -0.0360   -0.0320 c3        1 689     -0.060700
      3 CAJ         2.0490   -0.0180    1.4270 c3        1 689     -0.043500
      4 CAO         1.5010   -1.2030    2.1570 c2        1 689     -0.105400
      5 CAR         1.2380   -1.0280    3.6040 c3        1 689     -0.057900
      6 CAQ         1.2520   -2.3520    1.5120 c2        1 689     -0.161200
      7 CAP         1.4330   -2.5550    0.0470 c3        1 689     -0.008500
      8 CAS         2.1760   -3.8540   -0.2020 c3        1 689     -0.093100
      9 CAL         2.0770   -1.3510   -0.6620 c3        1 689     -0.068000
     10 CAT         1.7050   -1.3490   -2.1540 c3        1 689      0.137400
     11 OAU         2.5080   -2.3030   -2.8310 oh        1 689     -0.602800
     12 CAM         3.6110   -1.3370   -0.5600 c3        1 689      0.143400
     13 OAH         4.1020   -1.1740    0.7620 os        1 689     -0.407600
     14 CAI         3.5920    0.0000    1.4050 c3        1 689      0.197400
     15 CAD         4.2100    0.1020    2.7650 ca        1 689     -0.113300
     16 CAC         4.1100    1.3160    3.4600 ca        1 689     -0.079500
     17 CAB         4.6890    1.4680    4.7140 ca        1 689     -0.189000
     18 CAA         5.3830    0.3860    5.2800 ca        1 689      0.122100
     19 OAG         5.9360    0.5940    6.5240 oh        1 689     -0.499100
     20 CAF         5.4950   -0.8320    4.5950 ca        1 689     -0.189000
     21 CAE         4.9060   -0.9660    3.3400 ca        1 689     -0.079500
     22 HAN1       -0.2070    1.1320    0.3440 hc        1 689      0.038033
     23 HAN2       -0.4700   -0.6600    0.3780 hc        1 689      0.038033
     24 HAN3       -0.2360    0.1940   -1.2060 hc        1 689      0.038033
     25 HAK         2.0740    0.8180   -0.5740 hc        1 689      0.044700
     26 HAJ         1.6980    0.9270    1.9250 hc        1 689      0.061700
     27 HAR1        0.9290   -1.9880    4.0830 hc        1 689      0.043367
     28 HAR2        0.4230   -0.2770    3.7570 hc        1 689      0.043367
     29 HAR3        2.1600   -0.6530    4.1180 hc        1 689      0.043367
     30 HAQ         0.8670   -3.2330    2.0510 ha        1 689      0.124000
     31 HAP         0.3920   -2.6680   -0.3870 hc        1 689      0.046700
     32 HAS1        1.5560   -4.7160    0.1450 hc        1 689      0.043700
     33 HAS2        2.3870   -3.9770   -1.2920 hc        1 689      0.043700
     34 HAS3        3.1420   -3.8690    0.3570 hc        1 689      0.043700
     35 HAT1        0.6180   -1.6020   -2.2840 h1        1 689      0.025200
     36 HAT2        1.8950   -0.3300   -2.5900 h1        1 689      0.025200
     37 HAU         2.2080   -2.3110   -3.7470 ho        1 689      0.401000
     38 HAM1        4.0090   -0.5090   -1.2080 h1        1 689      0.057700
     39 HAM2        4.0480   -2.3160   -0.8970 h1        1 689      0.057700
     40 HAI         3.9180    0.8990    0.7990 h1        1 689      0.039700
     41 HAC         3.5690    2.1610    3.0060 ha        1 689      0.144000
     42 HAB         4.6150    2.4150    5.2660 ha        1 689      0.141500
     43 HAG         6.3910   -0.2190    6.7860 ho        1 689      0.418000
     44 HAF         6.0430   -1.6720    5.0430 ha        1 689      0.141500
     45 HAE         4.9900   -1.9180    2.7910 ha        1 689      0.144000
@<TRIPOS>BOND
     1    1    2 1   
     2    1   22 1   
     3    1   23 1   
     4    1   24 1   
     5    2    3 1   
     6    2    9 1   
     7    2   25 1   
     8    3    4 1   
     9    3   14 1   
    10    3   26 1   
    11    4    5 1   
    12    4    6 2   
    13    5   27 1   
    14    5   28 1   
    15    5   29 1   
    16    6    7 1   
    17    6   30 1   
    18    7    8 1   
    19    7    9 1   
    20    7   31 1   
    21    8   32 1   
    22    8   33 1   
    23    8   34 1   
    24    9   10 1   
    25    9   12 1   
    26   10   11 1   
    27   10   35 1   
    28   10   36 1   
    29   11   37 1   
    30   12   13 1   
    31   12   38 1   
    32   12   39 1   
    33   13   14 1   
    34   14   15 1   
    35   14   40 1   
    36   15   16 ar  
    37   15   21 ar  
    38   16   17 ar  
    39   16   41 1   
    40   17   18 ar  
    41   17   42 1   
    42   18   19 1   
    43   18   20 ar  
    44   19   43 1   
    45   20   21 ar  
    46   20   44 1   
    47   21   45 1   
@<TRIPOS>SUBSTRUCTURE
     1 689         1 TEMP              0 ****  ****    0 ROOT
