@<TRIPOS>MOLECULE
molecule
   45    47     1     0     0
SMALL
bcc


@<TRIPOS>ATOM
      1 CAN          0.0000     0.0000     0.0000 c3         1 689      -0.089100
      2 CAK          1.5300     0.0000     0.0000 c3         1 689      -0.061700
      3 CAJ          2.0550     0.0000     1.4460 c3         1 689      -0.046500
      4 CAO          1.5970    -1.2710     2.1170 c2         1 689      -0.114400
      5 CAR          1.4440    -1.2790     3.6160 c3         1 689      -0.052900
      6 CAQ          1.3290    -2.3550     1.4620 c2         1 689      -0.160200
      7 CAP          1.4100    -2.4950    -0.0280 c3         1 689      -0.009500
      8 CAS          2.2070    -3.7560    -0.3700 c3         1 689      -0.096100
      9 CAL          2.0910    -1.2860    -0.6610 c3         1 689      -0.085000
     10 CAT          1.7550    -1.2660    -2.1540 c3         1 689       0.145400
     11 OAU          2.2670    -2.4470    -2.7730 oh         1 689      -0.610800
     12 CAM          3.6050    -1.3380    -0.5060 c3         1 689       0.141400
     13 OAH          3.9930    -1.2840     0.8620 os         1 689      -0.389600
     14 CAI          3.5930    -0.0420     1.3920 c3         1 689       0.189400
     15 CAD          4.1680     0.1310     2.7750 ca         1 689      -0.088300
     16 CAC          4.3180     1.3980     3.3060 ca         1 689      -0.099500
     17 CAB          4.8400     1.5580     4.5760 ca         1 689      -0.157500
     18 CAA          5.2210     0.4460     5.3120 ca         1 689       0.104100
     19 OAG          5.7390     0.6020     6.5590 oh         1 689      -0.524100
     20 CAF          5.0740    -0.8240     4.7740 ca         1 689      -0.157500
     21 CAE          4.5470    -0.9790     3.5070 ca         1 689      -0.099500
     22 HAN1        -0.3610     0.8540     0.5610 hc         1 689       0.039700
     23 HAN2        -0.3610     0.0590    -1.0200 hc         1 689       0.039700
     24 HAN3        -0.3610    -0.9120     0.4590 hc         1 689       0.039700
     25 HAK          1.8980     0.8740    -0.5250 hc         1 689       0.048700
     26 HAJ          1.7090     0.8730     1.9860 hc         1 689       0.069700
     27 HAR1         2.1160    -2.0130     4.0440 hc         1 689       0.041700
     28 HAR2         1.6830    -0.2980     4.0090 hc         1 689       0.041700
     29 HAR3         0.4220    -1.5320     3.8730 hc         1 689       0.041700
     30 HAQ          1.0240    -3.2230     2.0320 ha         1 689       0.122000
     31 HAP          0.4070    -2.5850    -0.4290 hc         1 689       0.055700
     32 HAS1         2.9900    -3.8990     0.3650 hc         1 689       0.046033
     33 HAS2         2.6490    -3.6490    -1.3530 hc         1 689       0.046033
     34 HAS3         1.5450    -4.6140    -0.3630 hc         1 689       0.046033
     35 HAT1         0.6800    -1.2280    -2.2820 h1         1 689       0.024700
     36 HAT2         2.2040    -0.3930    -2.6130 h1         1 689       0.024700
     37 HAU          2.1710    -2.3790    -3.7090 ho         1 689       0.399000
     38 HAM1         4.0420    -0.4960    -1.0300 h1         1 689       0.056200
     39 HAM2         3.9720    -2.2600    -0.9400 h1         1 689       0.056200
     40 HAI          3.9500     0.7530     0.7470 h1         1 689       0.040700
     41 HAC          4.0200     2.2650     2.7300 ha         1 689       0.142500
     42 HAB          4.9580     2.5510     4.9920 ha         1 689       0.140000
     43 HAG          6.6740     0.7090     6.5000 ho         1 689       0.418000
     44 HAF          5.3710    -1.6940     5.3480 ha         1 689       0.140000
     45 HAE          4.4320    -1.9700     3.0860 ha         1 689       0.142500
@<TRIPOS>BOND
     1     1     2 1
     2     1    22 1
     3     1    23 1
     4     1    24 1
     5     2     3 1
     6     2     9 1
     7     2    25 1
     8     3     4 1
     9     3    14 1
    10     3    26 1
    11     4     5 1
    12     4     6 2
    13     5    27 1
    14     5    28 1
    15     5    29 1
    16     6     7 1
    17     6    30 1
    18     7     8 1
    19     7     9 1
    20     7    31 1
    21     8    32 1
    22     8    33 1
    23     8    34 1
    24     9    10 1
    25     9    12 1
    26    10    11 1
    27    10    35 1
    28    10    36 1
    29    11    37 1
    30    12    13 1
    31    12    38 1
    32    12    39 1
    33    13    14 1
    34    14    15 1
    35    14    40 1
    36    15    16 ar
    37    15    21 ar
    38    16    17 ar
    39    16    41 1
    40    17    18 ar
    41    17    42 1
    42    18    19 1
    43    18    20 ar
    44    19    43 1
    45    20    21 ar
    46    20    44 1
    47    21    45 1
@<TRIPOS>SUBSTRUCTURE
     1 689         1 TEMP              0 ****  ****    0 ROOT
