@<TRIPOS>MOLECULE
molecule
   22    23     1     0     0
SMALL
bcc


@<TRIPOS>ATOM
      1 C5           0.0000     0.0000     0.0000 cc         1 68A       0.162300
      2 C7          -2.1690     0.0010    -0.8180 cd         1 68A       0.448800
      3 C10         -1.9300     0.0110     1.5160 c          1 68A       0.714100
      4 C2           0.5630     0.0050     2.2590 cc         1 68A      -0.069300
      5 C3           1.8070     0.0000     1.7550 cd         1 68A      -0.024700
      6 S4           1.7590     0.0000     0.0000 ss         1 68A      -0.033800
      7 N6          -0.8850     0.0000    -1.0160 nc         1 68A      -0.605100
      8 N8          -2.7180     0.0010     0.4210 n          1 68A      -0.382300
      9 C9          -4.1750     0.0050     0.5720 c3         1 68A       0.090300
     10 O11         -2.4130     0.0110     2.6350 o          1 68A      -0.650500
     11 C12         -0.4660     0.0060     1.3190 cc         1 68A      -0.210600
     12 O14          4.2370    -0.0070     1.9470 o          1 68A      -0.821300
     13 O15          2.9660     0.0030     3.7700 o          1 68A      -0.821300
     14 H1          -2.8280    -0.0070    -1.6780 h5         1 68A       0.038800
     15 H2           0.5610    -0.9530     4.1610 hc         1 68A       0.052033
     16 H3           0.8900     0.7840     4.2140 hc         1 68A       0.052033
     17 H4          -0.7550     0.2030     3.9200 hc         1 68A       0.052033
     18 H5          -4.4820     0.9130     1.0770 h1         1 68A       0.044700
     19 H6          -4.4800    -0.8540     1.1570 h1         1 68A       0.044700
     20 H7          -4.6390    -0.0390    -0.4050 h1         1 68A       0.044700
     21 C13          3.0330    -0.0010     2.5560 c          1 68A       0.904200
     22 C1           0.2960     0.0100     3.7430 c3         1 68A      -0.027800
@<TRIPOS>BOND
     1    10     3 2
     2    22     4 1
     3     9     8 1
     4     3     8 1
     5     3    11 1
     6    13    21 1
     7     4    11 1
     8     4     5 2
     9     8     2 1
    10    11     1 2
    11     5    21 1
    12     5     6 1
    13    21    12 1
    14     2     7 2
    15     1     7 1
    16     1     6 1
    17     2    14 1
    18    22    15 1
    19    22    16 1
    20    22    17 1
    21     9    18 1
    22     9    19 1
    23     9    20 1
@<TRIPOS>SUBSTRUCTURE
     1 68A         1 TEMP              0 ****  ****    0 ROOT
