@<TRIPOS>MOLECULE
molecule
   24    25     1     0     0
SMALL
bcc


@<TRIPOS>ATOM
      1 N3           0.0000     0.0000     0.0000 ns         1 68B      -0.470100
      2 C4           1.3990     0.0000     0.0000 ca         1 68B      -0.192000
      3 C5           2.1130     0.0000     1.1960 ca         1 68B       0.439200
      4 C7           4.0760    -0.0010     0.0010 ca         1 68B       0.656900
      5 C10         -2.1470     0.5360     1.0440 ca         1 68B      -0.154600
      6 C13         -4.9080     0.3500     1.1690 ca         1 68B      -0.099000
      7 C15         -2.8490     1.1870     2.0610 ca         1 68B      -0.083000
      8 O1          -0.0700     1.2750     1.8160 o          1 68B      -0.591100
      9 C2          -0.6730     0.6300     0.9820 c          1 68B       0.678700
     10 N6           3.4360    -0.0010     1.1530 nb         1 68B      -0.718500
     11 N8           3.4360    -0.0050    -1.1510 nb         1 68B      -0.718500
     12 C9           2.1150    -0.0050    -1.1950 ca         1 68B       0.439200
     13 C11         -2.8440    -0.2090     0.0920 ca         1 68B      -0.083000
     14 C12         -4.2190    -0.2980     0.1600 ca         1 68B      -0.136500
     15 C14         -4.2240     1.0940     2.1140 ca         1 68B      -0.136500
     16 H1          -0.5000    -0.4480    -0.7420 hn         1 68B       0.329500
     17 H2           1.5940    -0.0000     2.1460 h4         1 68B       0.043600
     18 H3           5.1590    -0.0010     0.0020 h5         1 68B       0.061100
     19 H4          -5.9880     0.2780     1.2160 ha         1 68B       0.135000
     20 H5          -2.3150     1.7700     2.8020 ha         1 68B       0.141000
     21 H6           1.5960    -0.0080    -2.1460 h4         1 68B       0.043600
     22 H7          -2.3060    -0.7170    -0.6990 ha         1 68B       0.141000
     23 H8          -4.7600    -0.8780    -0.5780 ha         1 68B       0.138000
     24 H9          -4.7700     1.5990     2.9020 ha         1 68B       0.138000
@<TRIPOS>BOND
     1     8     9 2   
     2    13    14 ar  
     3    13     5 ar  
     4    14     6 ar  
     5     9     5 1   
     6     9     1 1   
     7     5     7 ar  
     8    10     3 ar  
     9    10     4 ar  
    10     3     2 ar  
    11     6    15 ar  
    12     4    11 ar  
    13     2     1 1   
    14     2    12 ar  
    15     7    15 ar  
    16    11    12 ar  
    17     1    16 1   
    18     3    17 1   
    19     4    18 1   
    20     6    19 1   
    21     7    20 1   
    22    12    21 1   
    23    13    22 1   
    24    14    23 1   
    25    15    24 1   
@<TRIPOS>SUBSTRUCTURE
     1 68B         1 TEMP              0 ****  ****    0 ROOT
