@<TRIPOS>MOLECULE
68C
   26    28     1     0     0
SMALL
bcc


@<TRIPOS>ATOM
      1 C5           0.0000     0.0000     0.0000 cc         1 68C       0.293300
      2 C7          -2.1690    -0.0010    -0.8190 cd         1 68C       0.341800
      3 C15          5.4000    -0.0090     2.7100 cc         1 68C       0.404300
      4 C1           0.2970     0.0100     3.7430 c3         1 68C       0.024200
      5 C2           0.5630     0.0060     2.2590 cd         1 68C       0.068700
      6 C3           1.8070     0.0000     1.7550 cc         1 68C      -0.119700
      7 S4           1.7590     0.0000     0.0000 ss         1 68C      -0.221800
      8 N6          -0.8850    -0.0010    -1.0170 nc         1 68C      -0.509100
      9 N8          -2.7180    -0.0010     0.4210 ns         1 68C       0.009600
     10 C9          -1.9290     0.0120     1.5150 c          1 68C       0.627100
     11 O10         -2.4130     0.0160     2.6350 o          1 68C      -0.652500
     12 C11         -0.4660     0.0060     1.3190 cd         1 68C      -0.257600
     13 C12          3.0340    -0.0020     2.5570 c          1 68C       0.606700
     14 O13          2.9660     0.0020     3.7730 o          1 68C      -0.553100
     15 N14          4.2370    -0.0070     1.9490 ns         1 68C      -0.058400
     16 N16          5.4660    -0.0110     4.0100 nd         1 68C      -0.294000
     17 N17          6.6130    -0.0120     4.5360 nd         1 68C      -0.245000
     18 C18          7.6410    -0.0120     3.7510 cc         1 68C       0.436300
     19 S19          7.0510    -0.0160     2.0870 ss         1 68C      -0.438800
     20 H1          -2.8270    -0.0110    -1.6790 h5         1 68C       0.010800
     21 H2           0.7430     0.8910     4.1870 hc         1 68C       0.040700
     22 H3          -0.7720     0.0200     3.9180 hc         1 68C       0.040700
     23 H4           0.7280    -0.8780     4.1900 hc         1 68C       0.040700
     24 H5          -3.7130    -0.0020     0.5240 hn         1 68C       0.187500
     25 H6           4.2920    -0.0110     0.9500 hn         1 68C       0.182500
     26 H7           8.6790    -0.0130     4.0590 h5         1 68C       0.036100
@<TRIPOS>BOND
     1     1     7 1   
     2     1     8 1   
     3     1    12 2   
     4     2     8 2   
     5     2     9 1   
     6     2    20 1   
     7     3    15 1   
     8     3    16 2   
     9     3    19 1   
    10     4     5 1   
    11     4    21 1   
    12     4    22 1   
    13     4    23 1   
    14     5     6 2   
    15     5    12 1   
    16     6     7 1   
    17     6    13 1   
    18     9    10 1   
    19     9    24 1   
    20    10    11 2   
    21    10    12 1   
    22    13    14 2   
    23    13    15 1   
    24    15    25 1   
    25    16    17 1   
    26    17    18 2   
    27    18    19 1   
    28    18    26 1   
@<TRIPOS>SUBSTRUCTURE
     1 68C         1 TEMP              0 ****  ****    0 ROOT
