@<TRIPOS>MOLECULE
molecule
   26    28     1     0     0
SMALL
bcc


@<TRIPOS>ATOM
      1 C5           0.0000     0.0000     0.0000 cc         1 68C       0.282300
      2 C7          -2.1690    -0.0010    -0.8190 cd         1 68C       0.523800
      3 C15          5.4000    -0.0090     2.7100 cd         1 68C       0.563300
      4 C1           0.2970     0.0100     3.7430 c3         1 68C      -0.055800
      5 C2           0.5630     0.0060     2.2590 cd         1 68C       0.053700
      6 C3           1.8070     0.0000     1.7550 cc         1 68C      -0.153700
      7 S4           1.7590     0.0000     0.0000 ss         1 68C      -0.075800
      8 N6          -0.8850    -0.0010    -1.0170 nc         1 68C      -0.634100
      9 N8          -2.7180    -0.0010     0.4210 ns         1 68C      -0.463400
     10 C9          -1.9290     0.0120     1.5150 c          1 68C       0.719100
     11 O10         -2.4130     0.0160     2.6350 o          1 68C      -0.614500
     12 C11         -0.4660     0.0060     1.3190 cd         1 68C      -0.254600
     13 C12          3.0340    -0.0020     2.5570 c          1 68C       0.700700
     14 O13          2.9660     0.0020     3.7730 o          1 68C      -0.514100
     15 N14          4.2370    -0.0070     1.9490 ns         1 68C      -0.523400
     16 N16          5.4660    -0.0110     4.0100 nc         1 68C      -0.334000
     17 N17          6.6130    -0.0120     4.5360 nc         1 68C      -0.294000
     18 C18          7.6410    -0.0120     3.7510 cd         1 68C       0.409300
     19 S19          7.0510    -0.0160     2.0870 ss         1 68C      -0.374800
     20 H1          -2.8270    -0.0110    -1.6790 h5         1 68C       0.064800
     21 H2           0.7430     0.8910     4.1870 hc         1 68C       0.072033
     22 H3          -0.7720     0.0200     3.9180 hc         1 68C       0.072033
     23 H4           0.7280    -0.8780     4.1900 hc         1 68C       0.072033
     24 H5          -3.7130    -0.0020     0.5240 hn         1 68C       0.346500
     25 H6           4.2920    -0.0110     0.9500 hn         1 68C       0.337500
     26 H7           8.6790    -0.0130     4.0590 h5         1 68C       0.075100
@<TRIPOS>BOND
     1    16    17 1
     2    16     3 2
     3    17    18 2
     4    11    10 2
     5     4     5 1
     6     3    15 1
     7     3    19 1
     8    15    13 1
     9    10    12 1
    10    10     9 1
    11     5    12 1
    12     5     6 2
    13    18    19 1
    14    12     1 2
    15     9     2 1
    16     6    13 1
    17     6     7 1
    18    13    14 2
    19     1     8 1
    20     1     7 1
    21     2     8 2
    22     2    20 1
    23     4    21 1
    24     4    22 1
    25     4    23 1
    26     9    24 1
    27    15    25 1
    28    18    26 1
@<TRIPOS>SUBSTRUCTURE
     1 68C         1 TEMP              0 ****  ****    0 ROOT
