@<TRIPOS>MOLECULE
68D
   36    38     1     0     0
SMALL
bcc


@<TRIPOS>ATOM
      1 C5           0.0000     0.0000     0.0000 cc         1 68D       0.248300
      2 C7          -2.1690     0.0000    -0.8170 cd         1 68D       0.305800
      3 C15          5.4070    -0.0660     2.7090 ca         1 68D      -0.099400
      4 C17          6.6220     0.4390     4.7130 ca         1 68D      -0.127000
      5 C20          6.5090    -0.7530     2.2170 ca         1 68D      -0.015300
      6 C21          6.4490    -1.4030     0.8580 c3         1 68D      -0.102100
      7 C22          6.7920    -0.3850    -0.2000 c          1 68D       0.972600
      8 C1           0.2990    -0.0130     3.7420 c3         1 68D       0.031200
      9 C2           0.5640    -0.0100     2.2590 cd         1 68D       0.022700
     10 C3           1.8070     0.0000     1.7550 cc         1 68D      -0.072700
     11 S4           1.7590     0.0000     0.0000 ss         1 68D      -0.159800
     12 N6          -0.8860    -0.0000    -1.0160 nc         1 68D      -0.483100
     13 N8          -2.7170     0.0010     0.4230 ns         1 68D      -0.002400
     14 C9          -1.9290    -0.0060     1.5170 c          1 68D       0.629100
     15 O10         -2.4110    -0.0060     2.6370 o          1 68D      -0.675500
     16 C11         -0.4660    -0.0050     1.3190 cd         1 68D      -0.246600
     17 C12          3.0350     0.0100     2.5560 c          1 68D       0.604700
     18 O13          2.9670     0.0090     3.7720 o          1 68D      -0.664100
     19 N14          4.2370     0.0190     1.9470 ns         1 68D       0.009900
     20 C16          5.4680     0.5300     3.9610 ca         1 68D      -0.105000
     21 C18          7.7180    -0.2460     4.2210 ca         1 68D      -0.118000
     22 C19          7.6610    -0.8410     2.9740 ca         1 68D      -0.093000
     23 O23          6.8010    -0.7410    -1.4950 o          1 68D      -0.890300
     24 O24          7.0580     0.7490     0.1170 o          1 68D      -0.890300
     25 H1          -2.8280     0.0050    -1.6770 h5         1 68D       0.002800
     26 H2           6.6700     0.9050     5.6900 ha         1 68D       0.087000
     27 H3           7.1580    -2.2200     0.8170 hc         1 68D       0.015700
     28 H4           5.4490    -1.7820     0.6830 hc         1 68D       0.015700
     29 H5          -0.7700    -0.0160     3.9180 hc         1 68D       0.033700
     30 H6           0.7400    -0.8970     4.1860 hc         1 68D       0.033700
     31 H7           0.7370     0.8720     4.1890 hc         1 68D       0.033700
     32 H8          -3.7130     0.0010     0.5270 hn         1 68D       0.176500
     33 H9           4.2950     0.1380     0.9550 hn         1 68D       0.201500
     34 H10          4.6100     1.0670     4.3480 ha         1 68D       0.131000
     35 H11          8.6220    -0.3160     4.8130 ha         1 68D       0.084000
     36 H12          8.5210    -1.3770     2.5910 ha         1 68D       0.103000
@<TRIPOS>BOND
     1     1    11 1   
     2     1    12 1   
     3     1    16 2   
     4     2    12 2   
     5     2    13 1   
     6     2    25 1   
     7     3     5 ar  
     8     3    19 1   
     9     3    20 ar  
    10     4    20 ar  
    11     4    21 ar  
    12     4    26 1   
    13     5     6 1   
    14     5    22 ar  
    15     6     7 1   
    16     6    27 1   
    17     6    28 1   
    18     7    23 1   
    19     7    24 1   
    20     8     9 1   
    21     8    29 1   
    22     8    30 1   
    23     8    31 1   
    24     9    10 2   
    25     9    16 1   
    26    10    11 1   
    27    10    17 1   
    28    13    14 1   
    29    13    32 1   
    30    14    15 2   
    31    14    16 1   
    32    17    18 2   
    33    17    19 1   
    34    19    33 1   
    35    20    34 1   
    36    21    22 ar  
    37    21    35 1   
    38    22    36 1   
@<TRIPOS>SUBSTRUCTURE
     1 68D         1 TEMP              0 ****  ****    0 ROOT
