@<TRIPOS>MOLECULE
molecule
   36    38     1     0     0
SMALL
bcc


@<TRIPOS>ATOM
      1 C5           0.0000     0.0000     0.0000 cc         1 68D       0.232300
      2 C7          -2.1690     0.0000    -0.8170 cc         1 68D       0.491800
      3 C15          5.4070    -0.0660     2.7090 ca         1 68D       0.052600
      4 C17          6.6220     0.4390     4.7130 ca         1 68D      -0.149000
      5 C20          6.5090    -0.7530     2.2170 ca         1 68D      -0.027300
      6 C21          6.4490    -1.4030     0.8580 c3         1 68D      -0.159100
      7 C22          6.7920    -0.3850    -0.2000 c          1 68D       0.882600
      8 C1           0.2990    -0.0130     3.7420 c3         1 68D      -0.045800
      9 C2           0.5640    -0.0100     2.2590 cd         1 68D       0.015700
     10 C3           1.8070     0.0000     1.7550 cc         1 68D      -0.129700
     11 S4           1.7590     0.0000     0.0000 ss         1 68D       0.014200
     12 N6          -0.8860    -0.0000    -1.0160 nd         1 68D      -0.615100
     13 N8          -2.7170     0.0010     0.4230 ns         1 68D      -0.469400
     14 C9          -1.9290    -0.0060     1.5170 c          1 68D       0.720100
     15 O10         -2.4110    -0.0060     2.6370 o          1 68D      -0.636500
     16 C11         -0.4660    -0.0050     1.3190 cd         1 68D      -0.247600
     17 C12          3.0350     0.0100     2.5560 c          1 68D       0.698700
     18 O13          2.9670     0.0090     3.7720 o          1 68D      -0.612100
     19 N14          4.2370     0.0190     1.9470 ns         1 68D      -0.448100
     20 C16          5.4680     0.5300     3.9610 ca         1 68D      -0.127000
     21 C18          7.7180    -0.2460     4.2210 ca         1 68D      -0.146000
     22 C19          7.6610    -0.8410     2.9740 ca         1 68D      -0.116000
     23 O23          6.8010    -0.7410    -1.4950 o          1 68D      -0.840800
     24 O24          7.0580     0.7490     0.1170 o          1 68D      -0.840800
     25 H1          -2.8280     0.0050    -1.6770 h5         1 68D       0.053800
     26 H2           6.6700     0.9050     5.6900 ha         1 68D       0.111000
     27 H3           7.1580    -2.2200     0.8170 hc         1 68D       0.042200
     28 H4           5.4490    -1.7820     0.6830 hc         1 68D       0.042200
     29 H5          -0.7700    -0.0160     3.9180 hc         1 68D       0.062700
     30 H6           0.7400    -0.8970     4.1860 hc         1 68D       0.062700
     31 H7           0.7370     0.8720     4.1890 hc         1 68D       0.062700
     32 H8          -3.7130     0.0010     0.5270 hn         1 68D       0.333500
     33 H9           4.2950     0.1380     0.9550 hn         1 68D       0.347500
     34 H10          4.6100     1.0670     4.3480 ha         1 68D       0.148000
     35 H11          8.6220    -0.3160     4.8130 ha         1 68D       0.108000
     36 H12          8.5210    -1.3770     2.5910 ha         1 68D       0.128000
@<TRIPOS>BOND
     1    15    14 2
     2    13    14 1
     3    13     2 1
     4    14    16 1
     5     2    12 2
     6    16     9 1
     7    16     1 2
     8     8     9 1
     9    12     1 1
    10     9    10 2
    11     1    11 1
    12    10    11 1
    13    10    17 1
    14    24     7 1
    15    17    19 1
    16    17    18 2
    17    19     3 1
    18     7    23 1
    19     7     6 1
    20     3    20 ar
    21     3     5 ar
    22    20     4 ar
    23     5     6 1
    24     5    22 ar
    25     4    21 ar
    26    22    21 ar
    27     2    25 1
    28     4    26 1
    29     6    27 1
    30     6    28 1
    31     8    29 1
    32     8    30 1
    33     8    31 1
    34    13    32 1
    35    19    33 1
    36    20    34 1
    37    21    35 1
    38    22    36 1
@<TRIPOS>SUBSTRUCTURE
     1 68D         1 TEMP              0 ****  ****    0 ROOT
