@<TRIPOS>MOLECULE
68E
   54    57     1     0     0
SMALL
bcc


@<TRIPOS>ATOM
      1 C1           0.0000     0.0000     0.0000 ca         1 68E       0.202100
      2 C2           1.3870     0.0000     0.0000 ca         1 68E      -0.240000
      3 C3           2.0820     0.0000     1.1910 ca         1 68E       0.060700
      4 O1          -8.2500     2.9000    -0.6530 oh         1 68E      -0.588800
      5 O2           3.3540     0.0950     3.6720 o          1 68E      -0.620100
      6 O3           3.1270     1.1730     6.1690 o          1 68E      -0.568800
      7 C11         -4.6500     0.3480     0.9290 cc         1 68E       0.154900
      8 C12         -5.9880     0.7430     0.6070 cg         1 68E      -0.081000
      9 C13         -7.0900     1.0470     0.3390 c1         1 68E      -0.132100
     10 C14         -8.2900     2.0460     0.4760 c3         1 68E       0.377500
     11 C16          3.3970    -1.3600     6.3770 ca         1 68E      -0.201800
     12 C17          4.7430    -1.1660     6.4020 ca         1 68E       0.064000
     13 C18          5.6240    -2.2440     6.4850 ca         1 68E      -0.138000
     14 C19          5.1600    -3.5220     6.5430 ca         1 68E      -0.024000
     15 C20          3.7760    -3.7610     6.5200 ca         1 68E      -0.180300
     16 C21          3.2560    -5.0660     6.5790 ca         1 68E      -0.036000
     17 C22          1.8990    -5.2220     6.5520 ca         1 68E      -0.232300
     18 C23          1.0730    -4.1030     6.4680 ca         1 68E       0.440200
     19 C24          2.8790    -2.6670     6.4360 ca         1 68E       0.450600
     20 O4           1.3460    -0.1540     7.3130 o          1 68E      -0.568800
     21 S1           2.3060     0.0190     6.2810 sy         1 68E       1.052900
     22 N1           1.5610    -2.8880     6.4150 nb         1 68E      -0.592000
     23 N            1.4820    -0.1070     4.8500 ns         1 68E      -0.289300
     24 C5           1.3930    -0.0010     2.4070 ca         1 68E      -0.229600
     25 C4           3.5890    -0.0010     1.1810 c3         1 68E      -0.055800
     26 C6          -0.0020    -0.0010     2.4170 ca         1 68E      -0.011000
     27 C7          -0.7020    -0.0000     1.2150 ca         1 68E      -0.069000
     28 O           -0.6780     0.0060    -1.1750 os         1 68E      -0.291900
     29 C            0.1000     0.0120    -2.3740 c3         1 68E       0.240700
     30 C8          -2.1780    -0.0010     1.2170 cc         1 68E       0.085900
     31 S           -3.1920     1.1000     0.2950 ss         1 68E      -0.211800
     32 C10         -4.3120    -0.6640     1.7760 cd         1 68E      -0.120000
     33 C9          -2.9610    -0.8530     1.9340 cd         1 68E      -0.135000
     34 H1           1.9290     0.0000    -0.9380 ha         1 68E       0.133000
     35 H2          -8.9650     3.5120    -0.6100 ho         1 68E       0.393000
     36 H3          -8.1840     2.6280     1.3830 h1         1 68E      -0.013800
     37 H4          -9.2250     1.5000     0.4930 h1         1 68E      -0.013800
     38 H5           5.1460    -0.1620     6.3570 ha         1 68E       0.134000
     39 H6           6.6930    -2.0690     6.5030 ha         1 68E       0.111000
     40 H7           5.8580    -4.3480     6.6070 ha         1 68E       0.105000
     41 H8           3.9260    -5.9170     6.5950 ha         1 68E       0.111000
     42 H9           1.4670    -6.2140     6.5960 ha         1 68E       0.115000
     43 H10         -0.0030    -4.2250     6.4470 h4         1 68E      -0.020900
     44 H11          0.4850    -0.1960     4.8530 hn         1 68E       0.240500
     45 H12          3.9460     0.7810     0.5210 hc         1 68E       0.046367
     46 H13          3.9480    -0.9610     0.8290 hc         1 68E       0.046367
     47 H14          3.9570     0.1770     2.1840 hc         1 68E       0.046367
     48 H15         -0.5370    -0.0020     3.3600 ha         1 68E       0.110000
     49 H16         -0.5470    -0.1600    -3.2250 h1         1 68E       0.001700
     50 H17          0.5900     0.9730    -2.4810 h1         1 68E       0.001700
     51 H18          0.8480    -0.7700    -2.3230 h1         1 68E       0.001700
     52 H19         -5.0020    -1.2520     2.3680 ha         1 68E       0.124000
     53 H20         -2.6070    -1.6550     2.5720 ha         1 68E       0.123000
     54 C15          2.1410    -0.0010     3.6800 c          1 68E       0.690700
@<TRIPOS>BOND
     1     1     2 ar  
     2     1    27 ar  
     3     1    28 1   
     4     2     3 ar  
     5     2    34 1   
     6     3    24 ar  
     7     3    25 1   
     8     4    10 1   
     9     4    35 1   
    10     5    54 2   
    11     6    21 2   
    12     7     8 1   
    13     7    31 1   
    14     7    32 2   
    15     8     9 3   
    16     9    10 1   
    17    10    36 1   
    18    10    37 1   
    19    11    12 ar  
    20    11    19 ar  
    21    11    21 1   
    22    12    13 ar  
    23    12    38 1   
    24    13    14 ar  
    25    13    39 1   
    26    14    15 ar  
    27    14    40 1   
    28    15    16 ar  
    29    15    19 ar  
    30    16    17 ar  
    31    16    41 1   
    32    17    18 ar  
    33    17    42 1   
    34    18    22 ar  
    35    18    43 1   
    36    19    22 ar  
    37    20    21 2   
    38    21    23 1   
    39    23    44 1   
    40    23    54 1   
    41    24    26 ar  
    42    24    54 1   
    43    25    45 1   
    44    25    46 1   
    45    25    47 1   
    46    26    27 ar  
    47    26    48 1   
    48    27    30 1   
    49    28    29 1   
    50    29    49 1   
    51    29    50 1   
    52    29    51 1   
    53    30    31 1   
    54    30    33 2   
    55    32    33 1   
    56    32    52 1   
    57    33    53 1   
@<TRIPOS>SUBSTRUCTURE
     1 68E         1 TEMP              0 ****  ****    0 ROOT
