@<TRIPOS>MOLECULE
molecule
   48    49     1     0     0
SMALL
bcc


@<TRIPOS>ATOM
      1 OAG          0.0000     0.0000     0.0000 oh         1 68F      -0.582800
      2 CAC          1.4290     0.0000     0.0000 c3         1 68F       0.094600
      3 CAB          1.9650     0.0000     1.4500 c3         1 68F       0.104100
      4 OAH          0.9830     0.5130     2.3530 oh         1 68F      -0.576800
      5 CAA          3.1850     0.9530     1.3680 c3         1 68F       0.151000
      6 CAI          3.4950     1.5520     2.7410 c3         1 68F      -0.075100
      7 NAE          2.7300     2.0060     0.4240 n7         1 68F      -0.792700
      8 CAD          1.9640     1.3020    -0.6270 c3         1 68F       0.151500
      9 CAF          2.8780     0.9740    -1.8090 c3         1 68F      -0.077900
     10 CAJ          3.3030     2.2710    -2.5000 c3         1 68F      -0.079400
     11 CAK          4.2170     1.9430    -3.6810 c3         1 68F      -0.079400
     12 CAL          4.6430     3.2400    -4.3730 c3         1 68F      -0.077900
     13 CAM          5.5570     2.9120    -5.5540 c3         1 68F       0.151500
     14 NAQ          6.8320     2.3370    -5.0750 n7         1 68F      -0.792700
     15 CAP          7.9240     2.8330    -5.9330 c3         1 68F       0.151000
     16 CAR          8.6050     1.6600    -6.6390 c3         1 68F      -0.075100
     17 CAO          7.2920     3.7790    -6.9750 c3         1 68F       0.104100
     18 OAS          7.0330     3.0840    -8.1970 oh         1 68F      -0.576800
     19 CAN          5.9640     4.2080    -6.2980 c3         1 68F       0.094600
     20 OAT          4.9840     4.5670    -7.2750 oh         1 68F      -0.582800
     21 H1          -0.3140    -0.7600    -0.4610 ho         1 68F       0.396000
     22 H2           1.8100    -0.8590    -0.5390 h1         1 68F       0.040700
     23 H3           2.2790    -0.9960     1.7400 h1         1 68F       0.036700
     24 H4           0.6510    -0.1890     2.8880 ho         1 68F       0.401500
     25 H5           4.0470     0.4320     0.9680 h1         1 68F       0.054700
     26 H6           4.4180     2.1170     2.6890 hc         1 68F       0.042200
     27 H7           3.6000     0.7550     3.4680 hc         1 68F       0.042200
     28 H8           2.6870     2.2090     3.0400 hc         1 68F       0.042200
     29 H9           2.1290     2.6470     0.9030 hn         1 68F       0.356300
     30 H11          1.1360     1.9190    -0.9540 h1         1 68F       0.088700
     31 H12          2.3470     0.3460    -2.5140 hc         1 68F       0.042450
     32 H13          3.7570     0.4510    -1.4510 hc         1 68F       0.042450
     33 H14          2.4240     2.7940    -2.8580 hc         1 68F       0.048200
     34 H15          3.8350     2.8990    -1.7950 hc         1 68F       0.048200
     35 H16          3.6860     1.3150    -4.3860 hc         1 68F       0.048200
     36 H17          5.0960     1.4200    -3.3230 hc         1 68F       0.048200
     37 H18          3.7640     3.7630    -4.7310 hc         1 68F       0.042450
     38 H19          5.1740     3.8680    -3.6680 hc         1 68F       0.042450
     39 H20          5.0700     2.2260    -6.2360 h1         1 68F       0.088700
     40 H21          6.9940     2.6240    -4.1300 hn         1 68F       0.356300
     41 H23          8.6440     3.3770    -5.3330 h1         1 68F       0.054700
     42 H24          7.8600     1.0670    -7.1560 hc         1 68F       0.042200
     43 H25          9.1130     1.0430    -5.9070 hc         1 68F       0.042200
     44 H26          9.3260     2.0380    -7.3540 hc         1 68F       0.042200
     45 H27          7.9280     4.6390    -7.1440 h1         1 68F       0.036700
     46 H28          7.2910     3.6230    -8.9260 ho         1 68F       0.401500
     47 H29          6.1350     5.0160    -5.5960 h1         1 68F       0.040700
     48 H30          4.8190     5.4940    -7.2290 ho         1 68F       0.396000
@<TRIPOS>BOND
     1     4     3 1   
     2     1     2 1   
     3     3     2 1   
     4     3     5 1   
     5     2     8 1   
     6     8     7 1   
     7     8     9 1   
     8     6     5 1   
     9     7     5 1   
    10     9    10 1   
    11    10    11 1   
    12    11    12 1   
    13    19    20 1   
    14    19    17 1   
    15    19    13 1   
    16    12    13 1   
    17    17    15 1   
    18    17    18 1   
    19    13    14 1   
    20    15    14 1   
    21    15    16 1   
    22     1    21 1   
    23     2    22 1   
    24     3    23 1   
    25     4    24 1   
    26     5    25 1   
    27     6    26 1   
    28     6    27 1   
    29     6    28 1   
    30     7    29 1   
    31     8    30 1   
    32     9    31 1   
    33     9    32 1   
    34    10    33 1   
    35    10    34 1   
    36    11    35 1   
    37    11    36 1   
    38    12    37 1   
    39    12    38 1   
    40    13    39 1   
    41    14    40 1   
    42    15    41 1   
    43    16    42 1   
    44    16    43 1   
    45    16    44 1   
    46    17    45 1   
    47    18    46 1   
    48    19    47 1   
    49    20    48 1   
@<TRIPOS>SUBSTRUCTURE
     1 68F         1 TEMP              0 ****  ****    0 ROOT
