@<TRIPOS>MOLECULE
68F
   48    49     1     0     0
SMALL
bcc


@<TRIPOS>ATOM
      1 OAG          0.0000     0.0000     0.0000 oh         1 68F      -0.559800
      2 CAC          1.4290     0.0000     0.0000 c3         1 68F       0.137600
      3 CAB          1.9650     0.0000     1.4500 c3         1 68F       0.148100
      4 OAH          0.9830     0.5130     2.3530 oh         1 68F      -0.555800
      5 CAA          3.1850     0.9530     1.3680 c3         1 68F       0.108500
      6 CAI          3.4950     1.5520     2.7410 c3         1 68F       0.014900
      7 NAE          2.7300     2.0060     0.4240 n7         1 68F      -0.577200
      8 CAD          1.9640     1.3020    -0.6270 c3         1 68F       0.105500
      9 CAF          2.8780     0.9740    -1.8090 c3         1 68F      -0.026400
     10 CAJ          3.3030     2.2710    -2.5000 c3         1 68F      -0.030400
     11 CAK          4.2170     1.9430    -3.6810 c3         1 68F      -0.030400
     12 CAL          4.6430     3.2400    -4.3730 c3         1 68F      -0.026400
     13 CAM          5.5570     2.9120    -5.5540 c3         1 68F       0.105500
     14 NAQ          6.8320     2.3370    -5.0750 n7         1 68F      -0.577200
     15 CAP          7.9240     2.8330    -5.9330 c3         1 68F       0.108500
     16 CAR          8.6050     1.6600    -6.6390 c3         1 68F       0.014900
     17 CAO          7.2920     3.7790    -6.9750 c3         1 68F       0.148100
     18 OAS          7.0330     3.0840    -8.1970 oh         1 68F      -0.555800
     19 CAN          5.9640     4.2080    -6.2980 c3         1 68F       0.137600
     20 OAT          4.9840     4.5670    -7.2750 oh         1 68F      -0.559800
     21 H1          -0.3140    -0.7600    -0.4610 ho         1 68F       0.382000
     22 H2           1.8100    -0.8590    -0.5390 h1         1 68F       0.010700
     23 H3           2.2790    -0.9960     1.7400 h1         1 68F       0.003200
     24 H4           0.6510    -0.1890     2.8880 ho         1 68F       0.388000
     25 H5           4.0470     0.4320     0.9680 h1         1 68F       0.028200
     26 H6           4.4180     2.1170     2.6890 hc         1 68F       0.009367
     27 H7           3.6000     0.7550     3.4680 hc         1 68F       0.009367
     28 H8           2.6870     2.2090     3.0400 hc         1 68F       0.009367
     29 H9           2.1290     2.6470     0.9030 hn         1 68F       0.262300
     30 H11          1.1360     1.9190    -0.9540 h1         1 68F       0.058200
     31 H12          2.3470     0.3460    -2.5140 hc         1 68F       0.016200
     32 H13          3.7570     0.4510    -1.4510 hc         1 68F       0.016200
     33 H14          2.4240     2.7940    -2.8580 hc         1 68F       0.020950
     34 H15          3.8350     2.8990    -1.7950 hc         1 68F       0.020950
     35 H16          3.6860     1.3150    -4.3860 hc         1 68F       0.020950
     36 H17          5.0960     1.4200    -3.3230 hc         1 68F       0.020950
     37 H18          3.7640     3.7630    -4.7310 hc         1 68F       0.016200
     38 H19          5.1740     3.8680    -3.6680 hc         1 68F       0.016200
     39 H20          5.0700     2.2260    -6.2360 h1         1 68F       0.058200
     40 H21          6.9940     2.6240    -4.1300 hn         1 68F       0.262300
     41 H23          8.6440     3.3770    -5.3330 h1         1 68F       0.028200
     42 H24          7.8600     1.0670    -7.1560 hc         1 68F       0.009367
     43 H25          9.1130     1.0430    -5.9070 hc         1 68F       0.009367
     44 H26          9.3260     2.0380    -7.3540 hc         1 68F       0.009367
     45 H27          7.9280     4.6390    -7.1440 h1         1 68F       0.003200
     46 H28          7.2910     3.6230    -8.9260 ho         1 68F       0.388000
     47 H29          6.1350     5.0160    -5.5960 h1         1 68F       0.010700
     48 H30          4.8190     5.4940    -7.2290 ho         1 68F       0.382000
@<TRIPOS>BOND
     1     1     2 1   
     2     1    21 1   
     3     2     3 1   
     4     2     8 1   
     5     2    22 1   
     6     3     4 1   
     7     3     5 1   
     8     3    23 1   
     9     4    24 1   
    10     5     6 1   
    11     5     7 1   
    12     5    25 1   
    13     6    26 1   
    14     6    27 1   
    15     6    28 1   
    16     7     8 1   
    17     7    29 1   
    18     8     9 1   
    19     8    30 1   
    20     9    10 1   
    21     9    31 1   
    22     9    32 1   
    23    10    11 1   
    24    10    33 1   
    25    10    34 1   
    26    11    12 1   
    27    11    35 1   
    28    11    36 1   
    29    12    13 1   
    30    12    37 1   
    31    12    38 1   
    32    13    14 1   
    33    13    19 1   
    34    13    39 1   
    35    14    15 1   
    36    14    40 1   
    37    15    16 1   
    38    15    17 1   
    39    15    41 1   
    40    16    42 1   
    41    16    43 1   
    42    16    44 1   
    43    17    18 1   
    44    17    19 1   
    45    17    45 1   
    46    18    46 1   
    47    19    20 1   
    48    19    47 1   
    49    20    48 1   
@<TRIPOS>SUBSTRUCTURE
     1 68F         1 TEMP              0 ****  ****    0 ROOT
