@<TRIPOS>MOLECULE
68H
   38    38     1     0     0
SMALL
bcc


@<TRIPOS>ATOM
      1 O2           0.0000     0.0000     0.0000 oh         1 68H      -0.600800
      2 C2           1.4290     0.0000     0.0000 c3         1 68H       0.295700
      3 C12          1.9320     0.0000     1.4200 ca         1 68H      -0.138300
      4 C11          3.2960    -0.0000     1.6730 ca         1 68H       0.139100
      5 O1           4.1810    -0.0000     0.6410 oh         1 68H      -0.495100
      6 C10          3.7570    -0.0000     2.9820 ca         1 68H      -0.178000
      7 C9           2.8560    -0.0010     4.0300 ca         1 68H      -0.042000
      8 C13          1.0360     0.0050     2.4710 ca         1 68H      -0.046000
      9 C8           1.4970    -0.0000     3.7750 ca         1 68H      -0.158300
     10 C1           0.5170    -0.0010     4.9200 c3         1 68H       0.257400
     11 O3           1.0450    -0.7730     5.9990 oh         1 68H      -0.572800
     12 C3           0.2810     1.4360     5.3890 c3         1 68H       0.114800
     13 N1          -0.6750     1.4360     6.5050 n7         1 68H      -0.568200
     14 C4          -0.9260     2.8020     6.9830 c3         1 68H       0.098200
     15 C7          -1.5040     3.6440     5.8430 c3         1 68H      -0.009100
     16 C6          -1.9240     2.7600     8.1430 c3         1 68H      -0.009100
     17 C5           0.3870     3.4240     7.4620 c3         1 68H      -0.009100
     18 H2          -0.3140    -0.0290    -0.8880 ho         1 68H       0.392000
     19 H21C         1.7900     0.8840    -0.5110 h1         1 68H      -0.003800
     20 H22C         1.7900    -0.8840    -0.5110 h1         1 68H      -0.003800
     21 H13         -0.0290     0.0060     2.2730 ha         1 68H       0.125000
     22 H1           4.8040    -0.6980     0.7610 ho         1 68H       0.404000
     23 H10          4.8210    -0.0000     3.1820 ha         1 68H       0.112000
     24 H9           3.2150    -0.0030     5.0520 ha         1 68H       0.120000
     25 HA          -0.4210    -0.4330     4.5920 h1         1 68H      -0.000300
     26 H3           0.6310    -1.6200     6.0110 ho         1 68H       0.387000
     27 H31C        -0.1200     2.0220     4.5710 h1         1 68H       0.026200
     28 H32C         1.2190     1.8680     5.7170 h1         1 68H       0.026200
     29 HB          -1.5360     1.0230     6.2070 hn         1 68H       0.249800
     30 H71C        -2.2260     3.0550     5.2890 hc         1 68H       0.009922
     31 H72C        -0.7040     3.9510     5.1800 hc         1 68H       0.009922
     32 H73C        -1.9910     4.5200     6.2520 hc         1 68H       0.009922
     33 H61C        -2.0800     3.7640     8.5200 hc         1 68H       0.009922
     34 H62C        -2.8660     2.3550     7.7940 hc         1 68H       0.009922
     35 H63C        -1.5310     2.1340     8.9340 hc         1 68H       0.009922
     36 H51C         0.9690     2.6780     7.9880 hc         1 68H       0.009922
     37 H52C         0.1730     4.2510     8.1280 hc         1 68H       0.009922
     38 H53C         0.9480     3.7840     6.6080 hc         1 68H       0.009922
@<TRIPOS>BOND
     1     1     2 1   
     2     1    18 1   
     3     2     3 1   
     4     2    19 1   
     5     2    20 1   
     6     3     4 ar  
     7     3     8 ar  
     8     4     5 1   
     9     4     6 ar  
    10     5    22 1   
    11     6     7 ar  
    12     6    23 1   
    13     7     9 ar  
    14     7    24 1   
    15     8     9 ar  
    16     8    21 1   
    17     9    10 1   
    18    10    11 1   
    19    10    12 1   
    20    10    25 1   
    21    11    26 1   
    22    12    13 1   
    23    12    27 1   
    24    12    28 1   
    25    13    14 1   
    26    13    29 1   
    27    14    15 1   
    28    14    16 1   
    29    14    17 1   
    30    15    30 1   
    31    15    31 1   
    32    15    32 1   
    33    16    33 1   
    34    16    34 1   
    35    16    35 1   
    36    17    36 1   
    37    17    37 1   
    38    17    38 1   
@<TRIPOS>SUBSTRUCTURE
     1 68H         1 TEMP              0 ****  ****    0 ROOT
