@<TRIPOS>MOLECULE
molecule
   38    38     1     0     0
SMALL
bcc


@<TRIPOS>ATOM
      1 O2           0.0000     0.0000     0.0000 oh         1 68H      -0.618800
      2 C2           1.4290     0.0000     0.0000 c3         1 68H       0.196700
      3 C12          1.9320     0.0000     1.4200 ca         1 68H      -0.109300
      4 C11          3.2960    -0.0000     1.6730 ca         1 68H       0.119100
      5 O1           4.1810    -0.0000     0.6410 oh         1 68H      -0.517100
      6 C10          3.7570    -0.0000     2.9820 ca         1 68H      -0.193000
      7 C9           2.8560    -0.0010     4.0300 ca         1 68H      -0.075000
      8 C13          1.0360     0.0050     2.4710 ca         1 68H      -0.077000
      9 C8           1.4970    -0.0000     3.7750 ca         1 68H      -0.141300
     10 C1           0.5170    -0.0010     4.9200 c3         1 68H       0.199400
     11 O3           1.0450    -0.7730     5.9990 oh         1 68H      -0.588800
     12 C3           0.2810     1.4360     5.3890 c3         1 68H       0.153800
     13 N1          -0.6750     1.4360     6.5050 n7         1 68H      -0.802200
     14 C4          -0.9260     2.8020     6.9830 c3         1 68H       0.166200
     15 C7          -1.5040     3.6440     5.8430 c3         1 68H      -0.096100
     16 C6          -1.9240     2.7600     8.1430 c3         1 68H      -0.096100
     17 C5           0.3870     3.4240     7.4620 c3         1 68H      -0.096100
     18 H2          -0.3140    -0.0290    -0.8880 ho         1 68H       0.406000
     19 H21C         1.7900     0.8840    -0.5110 h1         1 68H       0.037200
     20 H22C         1.7900    -0.8840    -0.5110 h1         1 68H       0.037200
     21 H13         -0.0290     0.0060     2.2730 ha         1 68H       0.154000
     22 H1           4.8040    -0.6980     0.7610 ho         1 68H       0.422000
     23 H10          4.8210    -0.0000     3.1820 ha         1 68H       0.136000
     24 H9           3.2150    -0.0030     5.0520 ha         1 68H       0.151000
     25 HA          -0.4210    -0.4330     4.5920 h1         1 68H       0.034700
     26 H3           0.6310    -1.6200     6.0110 ho         1 68H       0.402000
     27 H31C        -0.1200     2.0220     4.5710 h1         1 68H       0.048200
     28 H32C         1.2190     1.8680     5.7170 h1         1 68H       0.048200
     29 HB          -1.5360     1.0230     6.2070 hn         1 68H       0.346800
     30 H71C        -2.2260     3.0550     5.2890 hc         1 68H       0.039033
     31 H72C        -0.7040     3.9510     5.1800 hc         1 68H       0.039033
     32 H73C        -1.9910     4.5200     6.2520 hc         1 68H       0.039033
     33 H61C        -2.0800     3.7640     8.5200 hc         1 68H       0.039033
     34 H62C        -2.8660     2.3550     7.7940 hc         1 68H       0.039033
     35 H63C        -1.5310     2.1340     8.9340 hc         1 68H       0.039033
     36 H51C         0.9690     2.6780     7.9880 hc         1 68H       0.039033
     37 H52C         0.1730     4.2510     8.1280 hc         1 68H       0.039033
     38 H53C         0.9480     3.7840     6.6080 hc         1 68H       0.039033
@<TRIPOS>BOND
     1     1     2 1   
     2     2     3 1   
     3     3     4 ar  
     4     3     8 ar  
     5     4     5 1   
     6     4     6 ar  
     7     6     7 ar  
     8     7     9 ar  
     9     8     9 ar  
    10     9    10 1   
    11    10    11 1   
    12    10    12 1   
    13    12    13 1   
    14    13    14 1   
    15    14    15 1   
    16    14    16 1   
    17    14    17 1   
    18     1    18 1   
    19     2    19 1   
    20     2    20 1   
    21     8    21 1   
    22     5    22 1   
    23     6    23 1   
    24     7    24 1   
    25    10    25 1   
    26    11    26 1   
    27    12    27 1   
    28    12    28 1   
    29    13    29 1   
    30    15    30 1   
    31    15    31 1   
    32    15    32 1   
    33    16    33 1   
    34    16    34 1   
    35    16    35 1   
    36    17    36 1   
    37    17    37 1   
    38    17    38 1   
@<TRIPOS>SUBSTRUCTURE
     1 68H         1 TEMP              0 ****  ****    0 ROOT
