@<TRIPOS>MOLECULE
68K
   86    90     1     0     0
SMALL
bcc


@<TRIPOS>ATOM
      1 C16          0.0000     0.0000     0.0000 c3         1 68K       0.003233
      2 C15          1.5310     0.0000     0.0000 c3         1 68K      -0.066000
      3 C17          2.0410     0.0000     1.4420 c3         1 68K       0.003233
      4 C18          2.0400    -1.2490    -0.7210 c3         1 68K       0.003233
      5 C14          2.0410     1.2500    -0.7210 c3         1 68K      -0.034400
      6 C13          1.5310     2.4990     0.0000 c3         1 68K       0.033000
      7 N2           2.0180     3.6950    -0.6900 ns         1 68K      -0.197900
      8 C12          1.6930     4.9190    -0.2290 c          1 68K       0.567100
      9 O1           0.9960     5.0300     0.7570 o          1 68K      -0.650100
     10 C11          2.1950     6.1500    -0.9390 c3         1 68K      -0.101400
     11 C10          1.6850     7.3990    -0.2180 c3         1 68K       0.052900
     12 C8           2.1870     8.6300    -0.9280 ca         1 68K      -0.267600
     13 C7           3.4960     9.0810    -0.7090 ca         1 68K       0.523200
     14 N1           3.9650    10.1540    -1.3140 nb         1 68K      -0.667000
     15 N3           4.3160     8.3840     0.1640 nv         1 68K      -0.542500
     16 C9           1.3720     9.3020    -1.7880 ca         1 68K      -0.013000
     17 C5           1.8800    10.4490    -2.4330 ca         1 68K      -0.202300
     18 C6           1.0940    11.1850    -3.3280 ca         1 68K      -0.058000
     19 C4           3.2100    10.8580    -2.1650 ca         1 68K       0.429600
     20 C3           3.7220    12.0010    -2.8040 ca         1 68K      -0.167300
     21 C2           2.9460    12.7030    -3.6700 ca         1 68K      -0.075000
     22 C1           1.6270    12.3050    -3.9400 cp         1 68K      -0.056000
     23 C19          0.8000    13.0900    -4.8900 cp         1 68K      -0.031000
     24 C24         -0.4250    13.6140    -4.4830 ca         1 68K      -0.091000
     25 C23         -1.1870    14.3480    -5.3690 ca         1 68K      -0.106000
     26 C22         -0.7370    14.5650    -6.6590 ca         1 68K      -0.100000
     27 C21          0.4790    14.0470    -7.0680 ca         1 68K      -0.097000
     28 C20          1.2500    13.3120    -6.1910 ca         1 68K      -0.075300
     29 C25          2.5770    12.7540    -6.6360 c3         1 68K       0.007900
     30 C26          2.4090    11.2820    -7.0170 c3         1 68K      -0.067700
     31 C27          3.7560    10.6920    -7.3460 ca         1 68K       0.360600
     32 C28          4.1850     9.5590    -6.6790 ca         1 68K      -0.191300
     33 C29          5.4240     9.0210    -6.9870 ca         1 68K      -0.069000
     34 N4           4.5070    11.2600    -8.2690 nb         1 68K      -0.558000
     35 C31          5.6920    10.7810    -8.5920 ca         1 68K       0.371200
     36 C30          6.1930     9.6490    -7.9630 ca         1 68K      -0.215700
     37 N5           7.4520     9.1440    -8.3090 ns         1 68K      -0.024100
     38 C32          7.6850     7.8180    -8.2530 c          1 68K       0.587700
     39 O2           6.7750     7.0520    -8.0010 o          1 68K      -0.635100
     40 C33          9.0440     7.2950    -8.5000 ca         1 68K      -0.177600
     41 C34         10.0910     8.1740    -8.7840 ca         1 68K      -0.030500
     42 C35         11.3570     7.6810    -9.0140 ca         1 68K      -0.143000
     43 C36         11.5930     6.3150    -8.9610 ca         1 68K       0.130900
     44 F1          12.8360     5.8370    -9.1860 f          1 68K      -0.124900
     45 C37         10.5560     5.4390    -8.6790 ca         1 68K      -0.143000
     46 C38          9.2870     5.9210    -8.4430 ca         1 68K      -0.030500
     47 H1          -0.3610    -0.9990     0.2120 hc         1 68K       0.007700
     48 H2          -0.3610     0.6830     0.7590 hc         1 68K       0.007700
     49 H3          -0.3610     0.3160    -0.9710 hc         1 68K       0.007700
     50 H4           3.0770     0.3160     1.4590 hc         1 68K       0.007700
     51 H5           1.9610    -0.9990     1.8530 hc         1 68K       0.007700
     52 H6           1.4450     0.6830     2.0350 hc         1 68K       0.007700
     53 H7           1.6790    -2.1330    -0.2110 hc         1 68K       0.007700
     54 H8           1.6790    -1.2480    -1.7430 hc         1 68K       0.007700
     55 H9           3.1240    -1.2490    -0.7210 hc         1 68K       0.007700
     56 H10          3.1240     1.2500    -0.7210 hc         1 68K       0.019200
     57 H11          1.6800     1.2500    -1.7420 hc         1 68K       0.019200
     58 H12          1.8920     2.4990     1.0220 h1         1 68K       0.034700
     59 H13          0.4470     2.4990     0.0010 h1         1 68K       0.034700
     60 H14          2.5860     3.6030    -1.5090 hn         1 68K       0.173500
     61 H15          3.2780     6.1500    -0.9390 hc         1 68K       0.031200
     62 H16          1.8340     6.1500    -1.9600 hc         1 68K       0.031200
     63 H17          2.0460     7.3990     0.8040 hc         1 68K       0.034200
     64 H18          0.6010     7.3990    -0.2180 hc         1 68K       0.034200
     65 H19          5.2870     8.6180     0.2340 hn         1 68K       0.277300
     66 H20          3.9370     7.6490     0.7270 hn         1 68K       0.277300
     67 H21          0.3070     9.1070    -1.7900 ha         1 68K       0.114000
     68 H22          0.0760    10.8810    -3.5380 ha         1 68K       0.111000
     69 H23          4.7380    12.3220    -2.6070 ha         1 68K       0.117000
     70 H24          3.3490    13.5820    -4.1570 ha         1 68K       0.114000
     71 H25         -0.7790    13.4450    -3.4730 ha         1 68K       0.108000
     72 H26         -2.1400    14.7550    -5.0530 ha         1 68K       0.102000
     73 H27         -1.3390    15.1410    -7.3510 ha         1 68K       0.102000
     74 H28          0.8270    14.2200    -8.0790 ha         1 68K       0.109000
     75 H29          2.9330    13.3110    -7.4940 hc         1 68K       0.036200
     76 H30          3.2930    12.8390    -5.8280 hc         1 68K       0.036200
     77 H31          1.7600    11.2050    -7.8820 hc         1 68K       0.028200
     78 H32          1.9700    10.7420    -6.1870 hc         1 68K       0.028200
     79 H33          3.5590     9.0970    -5.9250 ha         1 68K       0.120000
     80 H34          5.7870     8.1350    -6.4800 ha         1 68K       0.144000
     81 H35          6.2800    11.2760    -9.3550 h4         1 68K      -0.021900
     82 H36          8.1420     9.7550    -8.6980 hn         1 68K       0.172500
     83 H37          9.9080     9.2410    -8.8260 ha         1 68K       0.118000
     84 H38         12.1710     8.3620    -9.2340 ha         1 68K       0.123500
     85 H39         10.7460     4.3740    -8.6370 ha         1 68K       0.123500
     86 H40          8.4780     5.2350    -8.2230 ha         1 68K       0.118000
@<TRIPOS>BOND
     1     1     2 1   
     2     1    47 1   
     3     1    48 1   
     4     1    49 1   
     5     2     3 1   
     6     2     4 1   
     7     2     5 1   
     8     3    50 1   
     9     3    51 1   
    10     3    52 1   
    11     4    53 1   
    12     4    54 1   
    13     4    55 1   
    14     5     6 1   
    15     5    56 1   
    16     5    57 1   
    17     6     7 1   
    18     6    58 1   
    19     6    59 1   
    20     7     8 1   
    21     7    60 1   
    22     8     9 2   
    23     8    10 1   
    24    10    11 1   
    25    10    61 1   
    26    10    62 1   
    27    11    12 1   
    28    11    63 1   
    29    11    64 1   
    30    12    13 ar  
    31    12    16 ar  
    32    13    14 ar  
    33    13    15 1   
    34    14    19 ar  
    35    15    65 1   
    36    15    66 1   
    37    16    17 ar  
    38    16    67 1   
    39    17    18 ar  
    40    17    19 ar  
    41    18    22 ar  
    42    18    68 1   
    43    19    20 ar  
    44    20    21 ar  
    45    20    69 1   
    46    21    22 ar  
    47    21    70 1   
    48    22    23 1   
    49    23    24 ar  
    50    23    28 ar  
    51    24    25 ar  
    52    24    71 1   
    53    25    26 ar  
    54    25    72 1   
    55    26    27 ar  
    56    26    73 1   
    57    27    28 ar  
    58    27    74 1   
    59    28    29 1   
    60    29    30 1   
    61    29    75 1   
    62    29    76 1   
    63    30    31 1   
    64    30    77 1   
    65    30    78 1   
    66    31    32 ar  
    67    31    34 ar  
    68    32    33 ar  
    69    32    79 1   
    70    33    36 ar  
    71    33    80 1   
    72    34    35 ar  
    73    35    36 ar  
    74    35    81 1   
    75    36    37 1   
    76    37    38 1   
    77    37    82 1   
    78    38    39 2   
    79    38    40 1   
    80    40    41 ar  
    81    40    46 ar  
    82    41    42 ar  
    83    41    83 1   
    84    42    43 ar  
    85    42    84 1   
    86    43    44 1   
    87    43    45 ar  
    88    45    46 ar  
    89    45    85 1   
    90    46    86 1   
@<TRIPOS>SUBSTRUCTURE
     1 68K         1 TEMP              0 ****  ****    0 ROOT
