@<TRIPOS>MOLECULE
molecule
   86    90     1     0     0
SMALL
bcc


@<TRIPOS>ATOM
      1 C16          0.0000     0.0000     0.0000 c3         1 68K      -0.084433
      2 C15          1.5310     0.0000     0.0000 c3         1 68K      -0.067000
      3 C17          2.0410     0.0000     1.4420 c3         1 68K      -0.084433
      4 C18          2.0400    -1.2490    -0.7210 c3         1 68K      -0.084433
      5 C14          2.0410     1.2500    -0.7210 c3         1 68K      -0.089400
      6 C13          1.5310     2.4990     0.0000 c3         1 68K       0.107000
      7 N2           2.0180     3.6950    -0.6900 ns         1 68K      -0.587900
      8 C12          1.6930     4.9190    -0.2290 c          1 68K       0.653100
      9 O1           0.9960     5.0300     0.7570 o          1 68K      -0.612100
     10 C11          2.1950     6.1500    -0.9390 c3         1 68K      -0.160400
     11 C10          1.6850     7.3990    -0.2180 c3         1 68K      -0.014100
     12 C8           2.1870     8.6300    -0.9280 ca         1 68K      -0.259600
     13 C7           3.4960     9.0810    -0.7090 ca         1 68K       0.716200
     14 N1           3.9650    10.1540    -1.3140 nb         1 68K      -0.771000
     15 N3           4.3160     8.3840     0.1640 nv         1 68K      -1.012500
     16 C9           1.3720     9.3020    -1.7880 ca         1 68K      -0.044000
     17 C5           1.8800    10.4490    -2.4330 ca         1 68K      -0.203300
     18 C6           1.0940    11.1850    -3.3280 ca         1 68K      -0.085000
     19 C4           3.2100    10.8580    -2.1650 ca         1 68K       0.471600
     20 C3           3.7220    12.0010    -2.8040 ca         1 68K      -0.188300
     21 C2           2.9460    12.7030    -3.6700 ca         1 68K      -0.094000
     22 C1           1.6270    12.3050    -3.9400 cp         1 68K      -0.061000
     23 C19          0.8000    13.0900    -4.8900 cp         1 68K      -0.039000
     24 C24         -0.4250    13.6140    -4.4830 ca         1 68K      -0.115000
     25 C23         -1.1870    14.3480    -5.3690 ca         1 68K      -0.133000
     26 C22         -0.7370    14.5650    -6.6590 ca         1 68K      -0.126000
     27 C21          0.4790    14.0470    -7.0680 ca         1 68K      -0.124000
     28 C20          1.2500    13.3120    -6.1910 ca         1 68K      -0.072300
     29 C25          2.5770    12.7540    -6.6360 c3         1 68K      -0.037100
     30 C26          2.4090    11.2820    -7.0170 c3         1 68K      -0.116700
     31 C27          3.7560    10.6920    -7.3460 ca         1 68K       0.407600
     32 C28          4.1850     9.5590    -6.6790 ca         1 68K      -0.224300
     33 C29          5.4240     9.0210    -6.9870 ca         1 68K      -0.092000
     34 N4           4.5070    11.2600    -8.2690 nb         1 68K      -0.676000
     35 C31          5.6920    10.7810    -8.5920 ca         1 68K       0.388200
     36 C30          6.1930     9.6490    -7.9630 ca         1 68K      -0.072700
     37 N5           7.4520     9.1440    -8.3090 ns         1 68K      -0.469100
     38 C32          7.6850     7.8180    -8.2530 c          1 68K       0.677700
     39 O2           6.7750     7.0520    -8.0010 o          1 68K      -0.594100
     40 C33          9.0440     7.2950    -8.5000 ca         1 68K      -0.168600
     41 C34         10.0910     8.1740    -8.7840 ca         1 68K      -0.058500
     42 C35         11.3570     7.6810    -9.0140 ca         1 68K      -0.178000
     43 C36         11.5930     6.3150    -8.9610 ca         1 68K       0.160900
     44 F1          12.8360     5.8370    -9.1860 f          1 68K      -0.133900
     45 C37         10.5560     5.4390    -8.6790 ca         1 68K      -0.178000
     46 C38          9.2870     5.9210    -8.4430 ca         1 68K      -0.058500
     47 H1          -0.3610    -0.9990     0.2120 hc         1 68K       0.036922
     48 H2          -0.3610     0.6830     0.7590 hc         1 68K       0.036922
     49 H3          -0.3610     0.3160    -0.9710 hc         1 68K       0.036922
     50 H4           3.0770     0.3160     1.4590 hc         1 68K       0.036922
     51 H5           1.9610    -0.9990     1.8530 hc         1 68K       0.036922
     52 H6           1.4450     0.6830     2.0350 hc         1 68K       0.036922
     53 H7           1.6790    -2.1330    -0.2110 hc         1 68K       0.036922
     54 H8           1.6790    -1.2480    -1.7430 hc         1 68K       0.036922
     55 H9           3.1240    -1.2490    -0.7210 hc         1 68K       0.036922
     56 H10          3.1240     1.2500    -0.7210 hc         1 68K       0.045200
     57 H11          1.6800     1.2500    -1.7420 hc         1 68K       0.045200
     58 H12          1.8920     2.4990     1.0220 h1         1 68K       0.056200
     59 H13          0.4470     2.4990     0.0010 h1         1 68K       0.056200
     60 H14          2.5860     3.6030    -1.5090 hn         1 68K       0.312500
     61 H15          3.2780     6.1500    -0.9390 hc         1 68K       0.065200
     62 H16          1.8340     6.1500    -1.9600 hc         1 68K       0.065200
     63 H17          2.0460     7.3990     0.8040 hc         1 68K       0.063700
     64 H18          0.6010     7.3990    -0.2180 hc         1 68K       0.063700
     65 H19          5.2870     8.6180     0.2340 hn         1 68K       0.442800
     66 H20          3.9370     7.6490     0.7270 hn         1 68K       0.442800
     67 H21          0.3070     9.1070    -1.7900 ha         1 68K       0.143000
     68 H22          0.0760    10.8810    -3.5380 ha         1 68K       0.136000
     69 H23          4.7380    12.3220    -2.6070 ha         1 68K       0.148000
     70 H24          3.3490    13.5820    -4.1570 ha         1 68K       0.140000
     71 H25         -0.7790    13.4450    -3.4730 ha         1 68K       0.134000
     72 H26         -2.1400    14.7550    -5.0530 ha         1 68K       0.129000
     73 H27         -1.3390    15.1410    -7.3510 ha         1 68K       0.129000
     74 H28          0.8270    14.2200    -8.0790 ha         1 68K       0.134000
     75 H29          2.9330    13.3110    -7.4940 hc         1 68K       0.062700
     76 H30          3.2930    12.8390    -5.8280 hc         1 68K       0.062700
     77 H31          1.7600    11.2050    -7.8820 hc         1 68K       0.060200
     78 H32          1.9700    10.7420    -6.1870 hc         1 68K       0.060200
     79 H33          3.5590     9.0970    -5.9250 ha         1 68K       0.146000
     80 H34          5.7870     8.1350    -6.4800 ha         1 68K       0.167000
     81 H35          6.2800    11.2760    -9.3550 h4         1 68K       0.018100
     82 H36          8.1420     9.7550    -8.6980 hn         1 68K       0.325500
     83 H37          9.9080     9.2410    -8.8260 ha         1 68K       0.148000
     84 H38         12.1710     8.3620    -9.2340 ha         1 68K       0.152000
     85 H39         10.7460     4.3740    -8.6370 ha         1 68K       0.152000
     86 H40          8.4780     5.2350    -8.2230 ha         1 68K       0.148000
@<TRIPOS>BOND
     1    25    26 ar  
     2    25    24 ar  
     3    26    27 ar  
     4     3     2 1   
     5    24    23 ar  
     6    27    28 ar  
     7     1     2 1   
     8     4     2 1   
     9     2     5 1   
    10    23    28 ar  
    11    23    22 1   
    12    28    29 1   
    13    22    18 ar  
    14    22    21 ar  
    15     5     6 1   
    16    18    17 ar  
    17    29    30 1   
    18     6     7 1   
    19     9     8 2   
    20    21    20 ar  
    21    30    31 1   
    22    17    16 ar  
    23    17    19 ar  
    24     8     7 1   
    25     8    10 1   
    26    16    12 ar  
    27    20    19 ar  
    28    19    14 ar  
    29    10    11 1   
    30    31    32 ar  
    31    31    34 ar  
    32    12    11 1   
    33    12    13 ar  
    34    32    33 ar  
    35    14    13 ar  
    36    34    35 ar  
    37    13    15 1   
    38    33    36 ar  
    39    35    36 ar  
    40    36    37 1   
    41    37    38 1   
    42    39    38 2   
    43    38    40 1   
    44    40    46 ar  
    45    40    41 ar  
    46    46    45 ar  
    47    41    42 ar  
    48    45    43 ar  
    49    42    43 ar  
    50    43    44 1   
    51     1    47 1   
    52     1    48 1   
    53     1    49 1   
    54     3    50 1   
    55     3    51 1   
    56     3    52 1   
    57     4    53 1   
    58     4    54 1   
    59     4    55 1   
    60     5    56 1   
    61     5    57 1   
    62     6    58 1   
    63     6    59 1   
    64     7    60 1   
    65    10    61 1   
    66    10    62 1   
    67    11    63 1   
    68    11    64 1   
    69    15    65 1   
    70    15    66 1   
    71    16    67 1   
    72    18    68 1   
    73    20    69 1   
    74    21    70 1   
    75    24    71 1   
    76    25    72 1   
    77    26    73 1   
    78    27    74 1   
    79    29    75 1   
    80    29    76 1   
    81    30    77 1   
    82    30    78 1   
    83    32    79 1   
    84    33    80 1   
    85    35    81 1   
    86    37    82 1   
    87    41    83 1   
    88    42    84 1   
    89    45    85 1   
    90    46    86 1   
@<TRIPOS>SUBSTRUCTURE
     1 68K         1 TEMP              0 ****  ****    0 ROOT
