@<TRIPOS>MOLECULE
molecule
   56    61     1     0     0
SMALL
bcc


@<TRIPOS>ATOM
      1 C16          0.0000     0.0000     0.0000 c3         1 68L       0.186600
      2 O3           1.4290     0.0000     0.0000 os         1 68L      -0.407600
      3 C17          1.9910     0.0000     1.3180 c3         1 68L       0.134400
      4 C18          1.6960     1.3530     1.9710 c3         1 68L      -0.082200
      5 C19          0.2420     1.6940     1.7880 c2         1 68L      -0.142200
      6 C15         -0.5170     1.0880     0.8980 ce         1 68L      -0.220000
      7 C11         -1.9320     1.4930     0.7790 ca         1 68L       0.475100
      8 C12         -2.4340     2.5060     1.5990 ca         1 68L      -0.225300
      9 N1          -2.7160     0.8950    -0.1100 nb         1 68L      -0.633000
     10 C10         -3.9820     1.2250    -0.2500 ca         1 68L       0.434200
     11 C7          -4.5500     2.2210     0.5350 ca         1 68L       0.040800
     12 O1          -5.8510     2.5510     0.3750 os         1 68L      -0.208200
     13 C8          -3.7590     2.8730     1.4760 ca         1 68L      -0.144300
     14 C9          -4.3350     3.9520     2.3390 c3         1 68L       0.220800
     15 C13         -3.8040     3.8290     3.7820 c3         1 68L       0.120400
     16 O2          -2.6940     4.7530     3.7520 os         1 68L      -0.425400
     17 C14         -2.9330     5.6510     2.7740 c2         1 68L       0.569500
     18 N3          -3.8440     5.2740     1.9270 n2         1 68L      -0.521900
     19 N4          -2.2750     6.8530     2.6820 nz         1 68L      -0.714600
     20 C5          -5.8340     3.9170     2.3350 ca         1 68L      -0.155300
     21 C6          -6.5380     4.5880     3.3180 ca         1 68L      -0.135000
     22 C4          -6.5190     3.2120     1.3530 ca         1 68L       0.149100
     23 C3          -7.9100     3.1870     1.3620 ca         1 68L      -0.114000
     24 C2          -8.6110     3.8590     2.3410 ca         1 68L      -0.072000
     25 C1          -7.9260     4.5610     3.3250 ca         1 68L       0.053600
     26 N2          -8.6350     5.2420     4.3230 ns         1 68L      -0.468100
     27 C20         -9.8110     5.8300     4.0300 c          1 68L       0.585600
     28 O4         -10.2980     5.6990     2.9250 o          1 68L      -0.586100
     29 C21        -10.5110     6.6360     5.0580 ca         1 68L       0.353800
     30 C25        -11.7280     7.2410     4.7490 ca         1 68L      -0.170300
     31 C24        -12.3710     7.9920     5.7200 ca         1 68L      -0.093000
     32 C23        -11.7740     8.1120     6.9670 ca         1 68L      -0.070900
     33 Cl1        -12.5350     9.0480     8.2160 cl         1 68L      -0.065400
     34 C22        -10.5620     7.4820     7.2030 ca         1 68L       0.423200
     35 N5          -9.9760     6.7710     6.2640 nb         1 68L      -0.685000
     36 H1          -0.3570    -0.9580     0.3570 h1         1 68L       0.074700
     37 H2          -0.3570     0.1690    -1.0090 h1         1 68L       0.074700
     38 H3           3.0630    -0.1470     1.2560 h1         1 68L       0.058700
     39 H4           1.5420    -0.7920     1.9040 h1         1 68L       0.058700
     40 H5           1.9220     1.2980     3.0290 hc         1 68L       0.063700
     41 H6           2.3060     2.1170     1.5050 hc         1 68L       0.063700
     42 H7          -0.1960     2.4660     2.4090 ha         1 68L       0.107000
     43 H8          -1.7560     3.1130     2.1870 ha         1 68L       0.139000
     44 H9          -4.5900     0.7130    -0.9870 h4         1 68L       0.058100
     45 H10         -4.5520     4.1470     4.4980 h1         1 68L       0.111200
     46 H11         -3.4620     2.8210     3.9840 h1         1 68L       0.111200
     47 H15         -1.9650     6.9920     1.7400 hn         1 68L       0.484133
     48 H16         -1.4850     6.8490     3.2960 hn         1 68L       0.484133
     49 H18         -6.0040     5.1360     4.0860 ha         1 68L       0.124000
     50 H19         -8.4440     2.6390     0.5950 ha         1 68L       0.170000
     51 H20         -9.6940     3.8370     2.3450 ha         1 68L       0.191000
     52 H21         -8.2940     5.2470     5.2640 hn         1 68L       0.349500
     53 H22        -12.1650     7.1260     3.7650 ha         1 68L       0.175000
     54 H23        -13.3180     8.4750     5.5100 ha         1 68L       0.168000
     55 H24        -10.0940     7.5710     8.1760 h4         1 68L       0.043100
     56 H43         -2.8920     7.5920     2.9550 hn         1 68L       0.484133
@<TRIPOS>BOND
     1    33    32 1   
     2    32    34 ar  
     3    32    31 ar  
     4    34    35 ar  
     5    31    30 ar  
     6    35    29 ar  
     7    30    29 ar  
     8    29    27 1   
     9    27    26 1   
    10    27    28 2   
    11    26    25 1   
    12    19    17 1   
    13    25    21 ar  
    14    25    24 ar  
    15    17    18 2   
    16    17    16 1   
    17    21    20 ar  
    18    24    23 ar  
    19    18    14 1   
    20    16    15 1   
    21    20    14 1   
    22    20    22 ar  
    23    23    22 ar  
    24    14    15 1   
    25    14    13 1   
    26    22    12 1   
    27    13     8 ar  
    28    13    11 ar  
    29    12    11 1   
    30     8     7 ar  
    31    11    10 ar  
    32     5     4 1   
    33     5     6 2   
    34     7     6 1   
    35     7     9 ar  
    36    10     9 ar  
    37     4     3 1   
    38     6     1 1   
    39     3     2 1   
    40     1     2 1   
    41     1    36 1   
    42     1    37 1   
    43     3    38 1   
    44     3    39 1   
    45     4    40 1   
    46     4    41 1   
    47     5    42 1   
    48     8    43 1   
    49    10    44 1   
    50    15    45 1   
    51    15    46 1   
    52    19    47 1   
    53    19    48 1   
    54    21    49 1   
    55    23    50 1   
    56    24    51 1   
    57    26    52 1   
    58    30    53 1   
    59    31    54 1   
    60    34    55 1   
    61    56    19 1   
@<TRIPOS>SUBSTRUCTURE
     1 68L         1 TEMP              0 ****  ****    0 ROOT
