@<TRIPOS>MOLECULE
68L
   56    61     1     0     0
SMALL
bcc


@<TRIPOS>ATOM
      1 C16          0.0000     0.0000     0.0000 c3         1 68L       0.274600
      2 O3           1.4290     0.0000     0.0000 os         1 68L      -0.397600
      3 C17          1.9910     0.0000     1.3180 c3         1 68L       0.210400
      4 C18          1.6960     1.3530     1.9710 c3         1 68L      -0.015200
      5 C19          0.2420     1.6940     1.7880 c2         1 68L      -0.129200
      6 C15         -0.5170     1.0880     0.8980 ce         1 68L      -0.238000
      7 C11         -1.9320     1.4930     0.7790 ca         1 68L       0.433100
      8 C12         -2.4340     2.5060     1.5990 ca         1 68L      -0.202300
      9 N1          -2.7160     0.8950    -0.1100 nb         1 68L      -0.511000
     10 C10         -3.9820     1.2250    -0.2500 ca         1 68L       0.404200
     11 C7          -4.5500     2.2210     0.5350 ca         1 68L       0.054800
     12 O1          -5.8510     2.5510     0.3750 os         1 68L      -0.173200
     13 C8          -3.7590     2.8730     1.4760 ca         1 68L      -0.176300
     14 C9          -4.3350     3.9520     2.3390 c3         1 68L       0.233800
     15 C13         -3.8040     3.8290     3.7820 c3         1 68L       0.186400
     16 O2          -2.6940     4.7530     3.7520 os         1 68L      -0.391400
     17 C14         -2.9330     5.6510     2.7740 c2         1 68L       0.316500
     18 N3          -3.8440     5.2740     1.9270 n2         1 68L      -0.420900
     19 N4          -2.2750     6.8530     2.6820 nz         1 68L       0.243400
     20 C5          -5.8340     3.9170     2.3350 ca         1 68L      -0.183300
     21 C6          -6.5380     4.5880     3.3180 ca         1 68L      -0.111000
     22 C4          -6.5190     3.2120     1.3530 ca         1 68L       0.155100
     23 C3          -7.9100     3.1870     1.3620 ca         1 68L      -0.089000
     24 C2          -8.6110     3.8590     2.3410 ca         1 68L      -0.043000
     25 C1          -7.9260     4.5610     3.3250 ca         1 68L      -0.090400
     26 N2          -8.6350     5.2420     4.3230 ns         1 68L      -0.028100
     27 C20         -9.8110     5.8300     4.0300 c          1 68L       0.486600
     28 O4         -10.2980     5.6990     2.9250 o          1 68L      -0.630100
     29 C21        -10.5110     6.6360     5.0580 ca         1 68L       0.291800
     30 C25        -11.7280     7.2410     4.7490 ca         1 68L      -0.128300
     31 C24        -12.3710     7.9920     5.7200 ca         1 68L      -0.072000
     32 C23        -11.7740     8.1120     6.9670 ca         1 68L      -0.139900
     33 Cl1        -12.5350     9.0480     8.2160 cl         1 68L       0.028600
     34 C22        -10.5620     7.4820     7.2030 ca         1 68L       0.398200
     35 N5          -9.9760     6.7710     6.2640 nb         1 68L      -0.572000
     36 H1          -0.3570    -0.9580     0.3570 h1         1 68L       0.029700
     37 H2          -0.3570     0.1690    -1.0090 h1         1 68L       0.029700
     38 H3           3.0630    -0.1470     1.2560 h1         1 68L       0.016700
     39 H4           1.5420    -0.7920     1.9040 h1         1 68L       0.016700
     40 H5           1.9220     1.2980     3.0290 hc         1 68L       0.029700
     41 H6           2.3060     2.1170     1.5050 hc         1 68L       0.029700
     42 H7          -0.1960     2.4660     2.4090 ha         1 68L       0.088000
     43 H8          -1.7560     3.1130     2.1870 ha         1 68L       0.121000
     44 H9          -4.5900     0.7130    -0.9870 h4         1 68L       0.008100
     45 H10         -4.5520     4.1470     4.4980 h1         1 68L       0.067200
     46 H11         -3.4620     2.8210     3.9840 h1         1 68L       0.067200
     47 H15         -1.9650     6.9920     1.7400 hn         1 68L       0.222467
     48 H16         -1.4850     6.8490     3.2960 hn         1 68L       0.222467
     49 H18         -6.0040     5.1360     4.0860 ha         1 68L       0.102000
     50 H19         -8.4440     2.6390     0.5950 ha         1 68L       0.134000
     51 H20         -9.6940     3.8370     2.3450 ha         1 68L       0.162000
     52 H21         -8.2940     5.2470     5.2640 hn         1 68L       0.190500
     53 H22        -12.1650     7.1260     3.7650 ha         1 68L       0.142000
     54 H23        -13.3180     8.4750     5.5100 ha         1 68L       0.131000
     55 H24        -10.0940     7.5710     8.1760 h4         1 68L      -0.004900
     56 H43         -2.8920     7.5920     2.9550 hn         1 68L       0.222467
@<TRIPOS>BOND
     1     1     2 1   
     2     1     6 1   
     3     1    36 1   
     4     1    37 1   
     5     2     3 1   
     6     3     4 1   
     7     3    38 1   
     8     3    39 1   
     9     4     5 1   
    10     4    40 1   
    11     4    41 1   
    12     5     6 2   
    13     5    42 1   
    14     6     7 1   
    15     7     8 ar  
    16     7     9 ar  
    17     8    13 ar  
    18     8    43 1   
    19     9    10 ar  
    20    10    11 ar  
    21    10    44 1   
    22    11    12 1   
    23    11    13 ar  
    24    12    22 1   
    25    13    14 1   
    26    14    15 1   
    27    14    18 1   
    28    14    20 1   
    29    15    16 1   
    30    15    45 1   
    31    15    46 1   
    32    16    17 1   
    33    17    18 2   
    34    17    19 1   
    35    19    47 1   
    36    19    48 1   
    37    19    56 1   
    38    20    21 ar  
    39    20    22 ar  
    40    21    25 ar  
    41    21    49 1   
    42    22    23 ar  
    43    23    24 ar  
    44    23    50 1   
    45    24    25 ar  
    46    24    51 1   
    47    25    26 1   
    48    26    27 1   
    49    26    52 1   
    50    27    28 2   
    51    27    29 1   
    52    29    30 ar  
    53    29    35 ar  
    54    30    31 ar  
    55    30    53 1   
    56    31    32 ar  
    57    31    54 1   
    58    32    33 1   
    59    32    34 ar  
    60    34    35 ar  
    61    34    55 1   
@<TRIPOS>SUBSTRUCTURE
     1 68L         1 TEMP              0 ****  ****    0 ROOT
