@<TRIPOS>MOLECULE
molecule
   62    64     1     0     0
SMALL
bcc


@<TRIPOS>ATOM
      1 C18          0.0000     0.0000     0.0000 c3         1 68M      -0.084433
      2 C16          1.5300     0.0000     0.0000 c3         1 68M      -0.067000
      3 C19          2.0400     0.0000     1.4420 c3         1 68M      -0.084433
      4 C20          2.0400    -1.2490    -0.7220 c3         1 68M      -0.084433
      5 C15          2.0400     1.2490    -0.7220 c3         1 68M      -0.090400
      6 C14          1.5290     1.2490    -2.1640 c3         1 68M       0.108000
      7 N3           2.0180     2.4460    -2.8550 ns         1 68M      -0.588900
      8 C13          1.6910     2.6580    -4.1450 c          1 68M       0.660100
      9 O1           0.9940     1.8600    -4.7340 o          1 68M      -0.611100
     10 C12          2.1930     3.8890    -4.8560 c3         1 68M      -0.142700
     11 C17          1.6830     5.1380    -4.1340 c3         1 68M      -0.088100
     12 C11          1.6830     3.8880    -6.2980 c3         1 68M      -0.005100
     13 C4           2.2940     5.0450    -7.0480 ca         1 68M      -0.215600
     14 C3           3.5940     4.9400    -7.5630 ca         1 68M       0.695200
     15 N1           4.1560     5.9310    -8.2230 nb         1 68M      -0.710000
     16 N2           4.3050     3.7650    -7.3730 nv         1 68M      -1.079500
     17 C5           1.5820     6.1910    -7.2310 ca         1 68M      -0.074000
     18 C1           2.1900     7.2500    -7.9380 ca         1 68M      -0.169300
     19 C6           1.5120     8.4550    -8.1610 ca         1 68M      -0.065000
     20 C2           3.5090     7.0840    -8.4300 ca         1 68M       0.434600
     21 C9           4.1200     8.1350    -9.1360 ca         1 68M      -0.175300
     22 C8           3.4500     9.3000    -9.3380 ca         1 68M      -0.115000
     23 C7           2.1420     9.4710    -8.8610 cp         1 68M      -0.151500
     24 C10          1.4310    10.7500    -9.1010 cp         1 68M       0.478800
     25 N4           0.1200    10.7450    -9.3070 nb         1 68M      -0.683000
     26 C24         -0.5480    11.8600    -9.5250 ca         1 68M       0.416200
     27 C23          0.0970    13.0830    -9.5450 ca         1 68M      -0.252300
     28 C22          1.4670    13.1320    -9.3330 ca         1 68M      -0.093000
     29 C21          2.1440    11.9470    -9.1020 ca         1 68M      -0.192600
     30 C25          3.6320    11.9510    -8.8610 c3         1 68M      -0.050800
     31 H1          -0.3610    -0.2990    -0.9770 hc         1 68M       0.036811
     32 H2          -0.3610     0.9950     0.2290 hc         1 68M       0.036811
     33 H3          -0.3610    -0.6960     0.7470 hc         1 68M       0.036811
     34 H4           1.6800     0.8850     1.9530 hc         1 68M       0.036811
     35 H5           1.6790    -0.8840     1.9530 hc         1 68M       0.036811
     36 H6           3.1240    -0.0010     1.4420 hc         1 68M       0.036811
     37 H7           3.0800    -1.1110    -0.9920 hc         1 68M       0.036811
     38 H8           1.4530    -1.4140    -1.6170 hc         1 68M       0.036811
     39 H9           1.9490    -2.1070    -0.0670 hc         1 68M       0.036811
     40 H10          3.1230     1.2490    -0.7230 hc         1 68M       0.044700
     41 H11          1.6790     2.1340    -0.2110 hc         1 68M       0.044700
     42 H12          1.8900     0.3650    -2.6750 h1         1 68M       0.056200
     43 H13          0.4460     1.2500    -2.1640 h1         1 68M       0.056200
     44 H14          2.6340     3.0790    -2.3840 hn         1 68M       0.312500
     45 H15          3.2770     3.8890    -4.8560 hc         1 68M       0.068700
     46 H16          2.2180     6.0070    -4.4970 hc         1 68M       0.041033
     47 H17          1.8480     5.0320    -3.0690 hc         1 68M       0.041033
     48 H18          0.6240     5.2580    -4.3260 hc         1 68M       0.041033
     49 H19          1.9620     2.9590    -6.7800 hc         1 68M       0.065700
     50 H20          0.6040     3.9860    -6.3000 hc         1 68M       0.065700
     51 H21          5.0340     3.7270    -6.6880 hn         1 68M       0.436800
     52 H22          4.1330     2.9750    -7.9630 hn         1 68M       0.436800
     53 H23          0.5120     6.1970    -7.0610 ha         1 68M       0.145000
     54 H24          0.5020     8.5900    -7.7940 ha         1 68M       0.152000
     55 H25          5.1300     8.0200    -9.5110 ha         1 68M       0.149000
     56 H26          3.9290    10.1040    -9.8840 ha         1 68M       0.144000
     57 H27         -1.6180    11.8180    -9.6900 h4         1 68M       0.023100
     58 H28         -0.4620    13.9930    -9.7270 ha         1 68M       0.138000
     59 H29          1.9950    14.0780    -9.3420 ha         1 68M       0.139000
     60 H30          3.9280    12.9060    -8.4440 hc         1 68M       0.049367
     61 H31          3.8870    11.1590    -8.1670 hc         1 68M       0.049367
     62 H32          4.1500    11.7900    -9.7990 hc         1 68M       0.049367
@<TRIPOS>BOND
     1    16    14 1   
     2    14    15 ar  
     3    14    13 ar  
     4    15    20 ar  
     5    11    10 1   
     6    12    10 1   
     7    12    13 1   
     8    10     8 1   
     9    13    17 ar  
    10    20    21 ar  
    11    20    18 ar  
    12    21    22 ar  
    13    17    18 ar  
    14     7     8 1   
    15     7     6 1   
    16     8     9 2   
    17    18    19 ar  
    18    22    23 ar  
    19     6     5 1   
    20     5     2 1   
    21    19    23 ar  
    22    23    24 1   
    23     3     2 1   
    24     2     4 1   
    25     2     1 1   
    26    25    24 ar  
    27    25    26 ar  
    28    24    29 ar  
    29    26    27 ar  
    30    29    30 1   
    31    29    28 ar  
    32    27    28 ar  
    33     1    31 1   
    34     1    32 1   
    35     1    33 1   
    36     3    34 1   
    37     3    35 1   
    38     3    36 1   
    39     4    37 1   
    40     4    38 1   
    41     4    39 1   
    42     5    40 1   
    43     5    41 1   
    44     6    42 1   
    45     6    43 1   
    46     7    44 1   
    47    10    45 1   
    48    11    46 1   
    49    11    47 1   
    50    11    48 1   
    51    12    49 1   
    52    12    50 1   
    53    16    51 1   
    54    16    52 1   
    55    17    53 1   
    56    19    54 1   
    57    21    55 1   
    58    22    56 1   
    59    26    57 1   
    60    27    58 1   
    61    28    59 1   
    62    30    60 1   
    63    30    61 1   
    64    30    62 1   
@<TRIPOS>SUBSTRUCTURE
     1 68M         1 TEMP              0 ****  ****    0 ROOT
