@<TRIPOS>MOLECULE
68M
   62    64     1     0     0
SMALL
bcc


@<TRIPOS>ATOM
      1 C18          0.0000     0.0000     0.0000 c3         1 68M       0.003233
      2 C16          1.5300     0.0000     0.0000 c3         1 68M      -0.066000
      3 C19          2.0400     0.0000     1.4420 c3         1 68M       0.003233
      4 C20          2.0400    -1.2490    -0.7220 c3         1 68M       0.003233
      5 C15          2.0400     1.2490    -0.7220 c3         1 68M      -0.034400
      6 C14          1.5290     1.2490    -2.1640 c3         1 68M       0.034000
      7 N3           2.0180     2.4460    -2.8550 ns         1 68M      -0.201900
      8 C13          1.6910     2.6580    -4.1450 c          1 68M       0.575100
      9 O1           0.9940     1.8600    -4.7340 o          1 68M      -0.648100
     10 C12          2.1930     3.8890    -4.8560 c3         1 68M      -0.120700
     11 C17          1.6830     5.1380    -4.1340 c3         1 68M       0.001900
     12 C11          1.6830     3.8880    -6.2980 c3         1 68M       0.053900
     13 C4           2.2940     5.0450    -7.0480 ca         1 68M      -0.213600
     14 C3           3.5940     4.9400    -7.5630 ca         1 68M       0.509200
     15 N1           4.1560     5.9310    -8.2230 nb         1 68M      -0.586000
     16 N2           4.3050     3.7650    -7.3730 nv         1 68M      -0.654500
     17 C5           1.5820     6.1910    -7.2310 ca         1 68M      -0.053000
     18 C1           2.1900     7.2500    -7.9380 ca         1 68M      -0.157300
     19 C6           1.5120     8.4550    -8.1610 ca         1 68M      -0.043000
     20 C2           3.5090     7.0840    -8.4300 ca         1 68M       0.382600
     21 C9           4.1200     8.1350    -9.1360 ca         1 68M      -0.147300
     22 C8           3.4500     9.3000    -9.3380 ca         1 68M      -0.111000
     23 C7           2.1420     9.4710    -8.8610 cp         1 68M      -0.151500
     24 C10          1.4310    10.7500    -9.1010 cp         1 68M       0.436800
     25 N4           0.1200    10.7450    -9.3070 nb         1 68M      -0.569000
     26 C24         -0.5480    11.8600    -9.5250 ca         1 68M       0.397200
     27 C23          0.0970    13.0830    -9.5450 ca         1 68M      -0.219300
     28 C22          1.4670    13.1320    -9.3330 ca         1 68M      -0.070000
     29 C21          2.1440    11.9470    -9.1020 ca         1 68M      -0.191600
     30 C25          3.6320    11.9510    -8.8610 c3         1 68M       0.047200
     31 H1          -0.3610    -0.2990    -0.9770 hc         1 68M       0.007478
     32 H2          -0.3610     0.9950     0.2290 hc         1 68M       0.007478
     33 H3          -0.3610    -0.6960     0.7470 hc         1 68M       0.007478
     34 H4           1.6800     0.8850     1.9530 hc         1 68M       0.007478
     35 H5           1.6790    -0.8840     1.9530 hc         1 68M       0.007478
     36 H6           3.1240    -0.0010     1.4420 hc         1 68M       0.007478
     37 H7           3.0800    -1.1110    -0.9920 hc         1 68M       0.007478
     38 H8           1.4530    -1.4140    -1.6170 hc         1 68M       0.007478
     39 H9           1.9490    -2.1070    -0.0670 hc         1 68M       0.007478
     40 H10          3.1230     1.2490    -0.7230 hc         1 68M       0.018700
     41 H11          1.6790     2.1340    -0.2110 hc         1 68M       0.018700
     42 H12          1.8900     0.3650    -2.6750 h1         1 68M       0.034200
     43 H13          0.4460     1.2500    -2.1640 h1         1 68M       0.034200
     44 H14          2.6340     3.0790    -2.3840 hn         1 68M       0.175500
     45 H15          3.2770     3.8890    -4.8560 hc         1 68M       0.040700
     46 H16          2.2180     6.0070    -4.4970 hc         1 68M       0.009367
     47 H17          1.8480     5.0320    -3.0690 hc         1 68M       0.009367
     48 H18          0.6240     5.2580    -4.3260 hc         1 68M       0.009367
     49 H19          1.9620     2.9590    -6.7800 hc         1 68M       0.037200
     50 H20          0.6040     3.9860    -6.3000 hc         1 68M       0.037200
     51 H21          5.0340     3.7270    -6.6880 hn         1 68M       0.277300
     52 H22          4.1330     2.9750    -7.9630 hn         1 68M       0.277300
     53 H23          0.5120     6.1970    -7.0610 ha         1 68M       0.119000
     54 H24          0.5020     8.5900    -7.7940 ha         1 68M       0.122000
     55 H25          5.1300     8.0200    -9.5110 ha         1 68M       0.117000
     56 H26          3.9290    10.1040    -9.8840 ha         1 68M       0.127000
     57 H27         -1.6180    11.8180    -9.6900 h4         1 68M      -0.019900
     58 H28         -0.4620    13.9930    -9.7270 ha         1 68M       0.112000
     59 H29          1.9950    14.0780    -9.3420 ha         1 68M       0.111000
     60 H30          3.9280    12.9060    -8.4440 hc         1 68M       0.018367
     61 H31          3.8870    11.1590    -8.1670 hc         1 68M       0.018367
     62 H32          4.1500    11.7900    -9.7990 hc         1 68M       0.018367
@<TRIPOS>BOND
     1     1     2 1   
     2     1    31 1   
     3     1    32 1   
     4     1    33 1   
     5     2     3 1   
     6     2     4 1   
     7     2     5 1   
     8     3    34 1   
     9     3    35 1   
    10     3    36 1   
    11     4    37 1   
    12     4    38 1   
    13     4    39 1   
    14     5     6 1   
    15     5    40 1   
    16     5    41 1   
    17     6     7 1   
    18     6    42 1   
    19     6    43 1   
    20     7     8 1   
    21     7    44 1   
    22     8     9 2   
    23     8    10 1   
    24    10    11 1   
    25    10    12 1   
    26    10    45 1   
    27    11    46 1   
    28    11    47 1   
    29    11    48 1   
    30    12    13 1   
    31    12    49 1   
    32    12    50 1   
    33    13    14 ar  
    34    13    17 ar  
    35    14    15 ar  
    36    14    16 1   
    37    15    20 ar  
    38    16    51 1   
    39    16    52 1   
    40    17    18 ar  
    41    17    53 1   
    42    18    19 ar  
    43    18    20 ar  
    44    19    23 ar  
    45    19    54 1   
    46    20    21 ar  
    47    21    22 ar  
    48    21    55 1   
    49    22    23 ar  
    50    22    56 1   
    51    23    24 1   
    52    24    25 ar  
    53    24    29 ar  
    54    25    26 ar  
    55    26    27 ar  
    56    26    57 1   
    57    27    28 ar  
    58    27    58 1   
    59    28    29 ar  
    60    28    59 1   
    61    29    30 1   
    62    30    60 1   
    63    30    61 1   
    64    30    62 1   
@<TRIPOS>SUBSTRUCTURE
     1 68M         1 TEMP              0 ****  ****    0 ROOT
