@<TRIPOS>MOLECULE
68N
   25    26     1     0     0
SMALL
bcc


@<TRIPOS>ATOM
      1 CAD          0.0000     0.0000     0.0000 ca         1 68N      -0.103000
      2 CAB          1.3810     0.0000     0.0000 ca         1 68N      -0.099000
      3 CAC          2.0680     0.0000     1.1990 ca         1 68N      -0.104000
      4 CAE          1.3710    -0.0000     2.3910 ca         1 68N      -0.110000
      5 CAK         -0.0160    -0.0020     2.3930 ca         1 68N      -0.079300
      6 CAJ         -0.7000     0.0020     1.1960 ca         1 68N      -0.063300
      7 CAH         -2.2070     0.0200     1.1480 c3         1 68N       0.035900
      8 CAG         -2.7780    -0.3940     2.5040 c3         1 68N       0.143800
      9 NAI         -2.1250     0.4080     3.5500 n7         1 68N      -0.574200
     10 CAL         -0.7300    -0.0070     3.7180 c3         1 68N       0.176800
     11 CAF         -0.0280     0.9560     4.6760 c3         1 68N       0.217400
     12 OAA         -0.6320     0.8680     5.9680 oh         1 68N      -0.600800
     13 H1          -0.5390    -0.0000    -0.9400 ha         1 68N       0.105000
     14 H2           1.9240     0.0000    -0.9370 ha         1 68N       0.102000
     15 H3           3.1520    -0.0000     1.2040 ha         1 68N       0.102000
     16 H4           1.9110    -0.0010     3.3300 ha         1 68N       0.109000
     17 H5          -2.5450     1.0200     0.9070 hc         1 68N       0.024700
     18 H6          -2.5490    -0.6740     0.3890 hc         1 68N       0.024700
     19 H7          -3.8460    -0.2110     2.5200 h1         1 68N       0.007700
     20 H8          -2.5810    -1.4460     2.6760 h1         1 68N       0.007700
     21 H9          -2.6140     0.2910     4.4150 hn         1 68N       0.267800
     22 H11         -0.7060    -1.0090     4.1300 h1         1 68N       0.018700
     23 H12         -0.1220     1.9690     4.3030 h1         1 68N      -0.000800
     24 H13          1.0200     0.6930     4.7480 h1         1 68N      -0.000800
     25 H14         -0.1650     1.4220     6.5720 ho         1 68N       0.393000
@<TRIPOS>BOND
     1     1     2 ar  
     2     1     6 ar  
     3     1    13 1   
     4     2     3 ar  
     5     2    14 1   
     6     3     4 ar  
     7     3    15 1   
     8     4     5 ar  
     9     4    16 1   
    10     5     6 ar  
    11     5    10 1   
    12     6     7 1   
    13     7     8 1   
    14     7    17 1   
    15     7    18 1   
    16     8     9 1   
    17     8    19 1   
    18     8    20 1   
    19     9    10 1   
    20     9    21 1   
    21    10    11 1   
    22    10    22 1   
    23    11    12 1   
    24    11    23 1   
    25    11    24 1   
    26    12    25 1   
@<TRIPOS>SUBSTRUCTURE
     1 68N         1 TEMP              0 ****  ****    0 ROOT
