@<TRIPOS>MOLECULE
molecule
   30    31     1     0     0
SMALL
bcc


@<TRIPOS>ATOM
      1 FAD          0.0000     0.0000     0.0000 f          1 68O      -0.127900
      2 CAO          1.3510     0.0000     0.0000 ca         1 68O       0.122900
      3 CAG          2.0450     0.0000     1.1970 ca         1 68O      -0.161000
      4 CAE          3.4270     0.0020     1.1960 ca         1 68O      -0.101000
      5 CAF          4.1200     0.0020    -0.0000 ca         1 68O      -0.135000
      6 CAH          3.4330     0.0020    -1.1990 ca         1 68O      -0.107000
      7 CAR          2.0470    -0.0050    -1.2030 ca         1 68O       0.056100
      8 OAL          1.3690    -0.0110    -2.3810 os         1 68O      -0.220200
      9 CAQ          0.8790     1.1710    -2.8430 ca         1 68O       0.140100
     10 CAJ          1.1750     2.3500    -2.1790 ca         1 68O      -0.235000
     11 CAN          0.6760     3.5530    -2.6500 ca         1 68O       0.159900
     12 FAC          0.9640     4.7030    -2.0020 f          1 68O      -0.135900
     13 CAP         -0.1180     3.5780    -3.7830 ca         1 68O      -0.134300
     14 CAK         -0.6600     4.8890    -4.2940 c3         1 68O      -0.032100
     15 CAA         -1.8860     5.2890    -3.4710 c3         1 68O      -0.090100
     16 CAI         -0.4150     2.4030    -4.4490 ca         1 68O      -0.111000
     17 CAM          0.0850     1.1980    -3.9850 ca         1 68O       0.076100
     18 OAB         -0.2020     0.0420    -4.6430 oh         1 68O      -0.501100
     19 HAG          1.5040    -0.0000     2.1350 ha         1 68O       0.151000
     20 HAE          3.9680     0.0020     2.1350 ha         1 68O       0.141000
     21 HAF          5.2030     0.0050     0.0020 ha         1 68O       0.142000
     22 HAH          3.9770     0.0000    -2.1360 ha         1 68O       0.154000
     23 HAJ          1.8270     2.3370    -1.3140 ha         1 68O       0.159000
     24 HAL         -0.9420     4.7820    -5.3340 hc         1 68O       0.053200
     25 HAK          0.1010     5.6540    -4.2030 hc         1 68O       0.053200
     26 HAC         -2.4790     6.0030    -4.0300 hc         1 68O       0.038700
     27 HAB         -2.4830     4.4090    -3.2620 hc         1 68O       0.038700
     28 HAA         -1.5650     5.7370    -2.5390 hc         1 68O       0.038700
     29 HAI         -1.0350     2.4250    -5.3370 ha         1 68O       0.151000
     30 HAM         -1.1100    -0.1770    -4.5120 ho         1 68O       0.418000
@<TRIPOS>BOND
     1     4     3 ar  
     2     4     5 ar  
     3     3     2 ar  
     4     5     6 ar  
     5     2     1 1   
     6     2     7 ar  
     7     6     7 ar  
     8     7     8 1   
     9     8     9 1   
    10     9    10 ar  
    11     9    17 ar  
    12    10    11 ar  
    13    18    17 1   
    14    17    16 ar  
    15    11    12 1   
    16    11    13 ar  
    17    16    13 ar  
    18    13    14 1   
    19    15    14 1   
    20     3    19 1   
    21     4    20 1   
    22     5    21 1   
    23     6    22 1   
    24    10    23 1   
    25    14    24 1   
    26    14    25 1   
    27    15    26 1   
    28    15    27 1   
    29    15    28 1   
    30    16    29 1   
    31    18    30 1   
@<TRIPOS>SUBSTRUCTURE
     1 68O         1 TEMP              0 ****  ****    0 ROOT
