@<TRIPOS>MOLECULE
molecule
   45    47     1     0     0
SMALL
bcc


@<TRIPOS>ATOM
      1 C10          0.0000     0.0000     0.0000 ca         1 68P      -0.131300
      2 C13         -1.3600     2.5720    -1.1210 ca         1 68P      -0.108000
      3 C15          1.3820     0.0000     0.0000 ca         1 68P      -0.092500
      4 C17         -1.4820     3.7570    -1.8170 ca         1 68P      -0.105000
      5 C20         -0.0030    -0.0110     2.3950 ca         1 68P      -0.155500
      6 C21          1.3820    -0.0000     2.3960 ca         1 68P       0.122900
      7 C22         -4.1970    -4.9820     0.1020 c3         1 68P       0.156600
      8 C24         -1.3380     5.0170    -3.9150 cg         1 68P       0.236800
      9 F01          2.0570    -0.0050     3.5660 f          1 68P      -0.137900
     10 O02          0.0290    -0.6400    -2.3290 os         1 68P      -0.370600
     11 N03         -2.9690    -4.1770     0.1490 n3         1 68P      -0.756600
     12 N04         -1.4230     5.9840    -4.5050 n1         1 68P      -0.354800
     13 C05         -0.7530     0.0000    -1.3050 c3         1 68P       0.226400
     14 C06         -2.0950    -0.7180    -1.1380 c3         1 68P      -0.074400
     15 C07         -0.9760     1.4190    -1.7770 ca         1 68P      -0.087300
     16 C08         -0.7140     1.4420    -3.1400 ca         1 68P      -0.120300
     17 C09         -1.8560    -2.1160    -0.5660 c3         1 68P      -0.093400
     18 C11         -0.3230     0.0410    -3.5460 c3         1 68P       0.157700
     19 C12         -3.1970    -2.8340    -0.4000 c3         1 68P       0.139800
     20 C14         -0.8350     2.6190    -3.8470 ca         1 68P      -0.078000
     21 C16         -0.6920    -0.0060     1.1980 ca         1 68P      -0.092500
     22 C18         -1.2140     3.7890    -3.1870 ca         1 68P      -0.006000
     23 C19          2.0740     0.0000     1.1970 ca         1 68P      -0.155500
     24 C23         -2.4410    -4.1040     1.5180 c3         1 68P       0.156600
     25 H1          -1.8290     2.6820    -0.1510 ha         1 68P       0.142000
     26 H2           1.5540    -0.2410    -1.0420 ha         1 68P       0.159500
     27 H3          -1.9650     4.4930    -1.1860 ha         1 68P       0.148000
     28 H4          -0.5050    -0.0020     3.3550 ha         1 68P       0.147500
     29 H5          -4.7930    -5.0970    -0.7960 h1         1 68P       0.029533
     30 H6          -4.0550    -6.0130     0.4000 h1         1 68P       0.029533
     31 H7          -4.9600    -4.5760     0.7560 h1         1 68P       0.029533
     32 H9          -2.7030    -0.1470    -0.4470 hc         1 68P       0.048700
     33 H10         -2.5980    -0.6130    -2.0920 hc         1 68P       0.048700
     34 H11         -1.2490    -2.8230    -1.1190 hc         1 68P       0.063200
     35 H12         -1.1570    -2.0010     0.2530 hc         1 68P       0.063200
     36 H13          0.6630     0.3580    -3.8640 h1         1 68P       0.073200
     37 H14         -0.8640    -0.3500    -4.3990 h1         1 68P       0.073200
     38 H15         -4.0650    -2.8930    -1.0450 h1         1 68P       0.061200
     39 H16         -3.1450    -2.4050     0.5930 h1         1 68P       0.061200
     40 H17         -0.5720     2.7890    -4.8840 ha         1 68P       0.148000
     41 H18         -1.7600     0.1080     1.0550 ha         1 68P       0.159500
     42 H19          3.0590     0.4100     1.3850 ha         1 68P       0.147500
     43 H20         -2.4550    -5.0660     2.0150 h1         1 68P       0.029533
     44 H21         -1.4220    -3.7420     1.4480 h1         1 68P       0.029533
     45 H22         -3.1450    -3.4050     1.9530 h1         1 68P       0.029533
@<TRIPOS>BOND
     1     9     6 1
     2     5     6 ar
     3     5    21 ar
     4     6    23 ar
     5    21     1 ar
     6     4     2 ar
     7     4    22 ar
     8    12     8 3
     9    23     3 ar
    10     2    15 ar
    11     8    22 1
    12    22    20 ar
    13     1     3 ar
    14     1    13 1
    15    15    13 1
    16    15    16 ar
    17    20    16 ar
    18    13    14 1
    19    13    10 1
    20    16    18 1
    21    24    11 1
    22    14    17 1
    23    10    18 1
    24    17    19 1
    25     7    11 1
    26    11    19 1
    27     2    25 1
    28     3    26 1
    29     4    27 1
    30     5    28 1
    31     7    29 1
    32     7    30 1
    33     7    31 1
    34    14    32 1
    35    14    33 1
    36    17    34 1
    37    17    35 1
    38    18    36 1
    39    18    37 1
    40    19    38 1
    41    19    39 1
    42    20    40 1
    43    21    41 1
    44    23    42 1
    45    24    43 1
    46    24    44 1
    47    24    45 1
@<TRIPOS>SUBSTRUCTURE
     1 68P         1 TEMP              0 ****  ****    0 ROOT
