@<TRIPOS>MOLECULE
68Q
   30    31     1     0     0
SMALL
bcc


@<TRIPOS>ATOM
      1 OAA          0.0000     0.0000     0.0000 o          1 68Q      -0.881300
      2 CAO          1.3460     0.0000     0.0000 c          1 68Q       0.972200
      3 OAC          1.9550     0.0000     1.0520 o          1 68Q      -0.881300
      4 CAU          2.0850     0.0000    -1.2800 ca         1 68Q      -0.086600
      5 CAL          3.4800    -0.0050    -1.2830 ca         1 68Q      -0.070000
      6 CAH          1.3880     0.0000    -2.4910 ca         1 68Q      -0.071000
      7 CAF          2.0810     0.0010    -3.6840 ca         1 68Q      -0.131000
      8 CAG          3.4630    -0.0000    -3.6870 ca         1 68Q      -0.161000
      9 CAQ          4.1660    -0.0050    -2.4880 ca         1 68Q      -0.136400
     10 NAM          5.5650    -0.0050    -2.4970 ns         1 68Q      -0.034100
     11 CAP          6.2450    -0.6460    -1.5250 c          1 68Q       0.539100
     12 OAB          5.6470    -1.3020    -0.6950 o          1 68Q      -0.648100
     13 NAN          7.5890    -0.5590    -1.4730 ns         1 68Q      -0.074100
     14 CAR          8.3030    -1.3100    -0.5330 ca         1 68Q      -0.037400
     15 CAK          7.8440    -2.5630    -0.1500 ca         1 68Q      -0.088000
     16 CAT          8.5520    -3.3030     0.7780 ca         1 68Q      -0.013600
     17 Cl1          7.9790    -4.8690     1.2580 cl         1 68Q      -0.009400
     18 CAS          9.7180    -2.7950     1.3260 ca         1 68Q      -0.062600
     19 Cl2         10.6060    -3.7260     2.4920 cl         1 68Q      -0.032400
     20 CAJ         10.1780    -1.5460     0.9450 ca         1 68Q      -0.075000
     21 CAI          9.4760    -0.8060     0.0130 ca         1 68Q      -0.144000
     22 H2           4.0260    -0.0090    -0.3470 ha         1 68Q       0.157000
     23 H3           0.3050     0.0010    -2.4930 ha         1 68Q       0.129000
     24 H4           1.5400     0.0030    -4.6220 ha         1 68Q       0.083000
     25 H5           4.0010     0.0000    -4.6270 ha         1 68Q       0.081000
     26 H6           6.0610     0.4980    -3.2060 hn         1 68Q       0.143500
     27 H7           8.0780     0.0220    -2.1250 hn         1 68Q       0.156500
     28 H8           6.9630    -2.9830    -0.6190 ha         1 68Q       0.161000
     29 H9          11.0910    -1.1520     1.3730 ha         1 68Q       0.109000
     30 H10          9.8370     0.1710    -0.2840 ha         1 68Q       0.106000
@<TRIPOS>BOND
     1     1     2 1   
     2     2     3 1   
     3     2     4 1   
     4     4     5 ar  
     5     4     6 ar  
     6     5     9 ar  
     7     5    22 1   
     8     6     7 ar  
     9     6    23 1   
    10     7     8 ar  
    11     7    24 1   
    12     8     9 ar  
    13     8    25 1   
    14     9    10 1   
    15    10    11 1   
    16    10    26 1   
    17    11    12 2   
    18    11    13 1   
    19    13    14 1   
    20    13    27 1   
    21    14    15 ar  
    22    14    21 ar  
    23    15    16 ar  
    24    15    28 1   
    25    16    17 1   
    26    16    18 ar  
    27    18    19 1   
    28    18    20 ar  
    29    20    21 ar  
    30    20    29 1   
    31    21    30 1   
@<TRIPOS>SUBSTRUCTURE
     1 68Q         1 TEMP              0 ****  ****    0 ROOT
