@<TRIPOS>MOLECULE
molecule
   54    58     1     0     0
SMALL
bcc


@<TRIPOS>ATOM
      1 C10          0.0000     0.0000     0.0000 c          1 68R       0.704100
      2 C13         -2.0220    -0.0010    -1.2560 ca         1 68R       0.000600
      3 C15         -4.1040    -1.1880    -1.1810 ca         1 68R      -0.121500
      4 C17         -4.0920     1.1910    -1.4780 ca         1 68R      -0.121500
      5 C20          0.3110    -0.3680    -4.7980 c3         1 68R      -0.106100
      6 C22         -2.3210     1.4770    -4.7180 ca         1 68R       0.713200
      7 C24         -3.9950     2.8360    -5.7960 ca         1 68R       0.750200
      8 C26         -3.9450     0.5460    -6.0620 ca         1 68R       0.747900
      9 C01          3.5860    -0.0010     1.1240 ca         1 68R      -0.150000
     10 C02          4.2400    -0.0030    -0.1000 ca         1 68R      -0.076000
     11 C03          3.5290    -0.0030    -1.2800 ca         1 68R      -0.127000
     12 C04          2.1340    -0.0020    -1.2480 ca         1 68R       0.198400
     13 C05          1.4700     0.0000     0.0000 ca         1 68R      -0.204600
     14 C06          2.2080     0.0000     1.1840 ca         1 68R       0.085400
     15 N07          1.3960    -0.0020    -2.3860 nc         1 68R      -0.643100
     16 C08          0.0970    -0.0010    -2.3550 cd         1 68R       0.491900
     17 N09         -0.6230    -0.0010    -1.2010 n          1 68R      -0.284500
     18 O11         -0.6310    -0.0040     1.0410 o          1 68R      -0.578500
     19 C14         -2.7240    -1.1920    -1.1320 ca         1 68R      -0.103000
     20 C16         -4.7880     0.0020    -1.3540 ca         1 68R      -0.105000
     21 C18         -2.7110     1.1930    -1.4290 ca         1 68R      -0.103000
     22 C19         -0.6490    -0.0020    -3.6640 c3         1 68R       0.288200
     23 N21         -1.2080     1.3310    -3.9080 nu         1 68R      -0.922900
     24 C23         -2.8680     2.7490    -4.9590 ca         1 68R      -0.333600
     25 N25         -4.4920     1.7170    -6.3190 nb         1 68R      -0.849000
     26 N27         -2.8890     0.4160    -5.2860 nb         1 68R      -0.833000
     27 N28         -4.5780     4.0600    -6.0710 nv         1 68R      -0.937500
     28 C29         -2.2940     3.9230    -4.3710 cg         1 68R      -0.148000
     29 C30         -1.8070     4.8740    -3.8860 ch         1 68R      -0.032000
     30 C31         -1.1630     5.9220    -3.3040 cd         1 68R      -0.295300
     31 C32          0.0560     6.3580    -2.6510 cc         1 68R      -0.006300
     32 N33         -0.0060     7.3720    -2.3840 na         1 68R       0.173400
     33 N34         -1.1080     8.2910    -2.5930 nc         1 68R      -0.665800
     34 C35         -1.9890     7.2100    -3.2870 cd         1 68R       0.381200
     35 H1          -4.4050    -2.1950    -1.4450 ha         1 68R       0.141500
     36 H2          -4.6880     2.0930    -1.4140 ha         1 68R       0.141500
     37 H3           1.1290     0.3400    -4.8560 hc         1 68R       0.051367
     38 H4           0.8270    -1.3010    -4.6100 hc         1 68R       0.051367
     39 H5          -0.0960    -0.5670    -5.7820 hc         1 68R       0.051367
     40 H6          -4.3020    -0.1530    -6.8090 h5         1 68R       0.062100
     41 H7           4.0320    -0.1230     2.1040 ha         1 68R       0.151000
     42 H8           5.3020    -0.2110    -0.1570 ha         1 68R       0.141000
     43 H9           3.9980    -0.1110    -2.2500 ha         1 68R       0.154000
     44 H10         -2.1670    -2.0690    -1.4410 ha         1 68R       0.137000
     45 H11         -5.8090     0.2090    -1.6500 ha         1 68R       0.141000
     46 H12         -2.1640     2.0710    -1.7500 ha         1 68R       0.137000
     47 H13         -1.4520    -0.7280    -3.6220 h1         1 68R       0.098700
     48 H14         -1.1920     2.3110    -3.7080 hn         1 68R       0.487800
     49 H15         -5.3350     4.0370    -6.7240 hn         1 68R       0.410800
     50 H16         -4.1000     4.9210    -6.2530 hn         1 68R       0.410800
     51 H17          0.8650     5.6730    -2.8720 h4         1 68R       0.173000
     52 H18          0.7780     7.8570    -1.9960 hn         1 68R       0.277700
     53 H19         -2.8890     7.7050    -3.6310 h4         1 68R       0.053100
     54 Cl1          1.3980     0.0020     2.7190 cl         1 68R      -0.061400
@<TRIPOS>BOND
     1    54    14 1   
     2     9    10 ar  
     3     9    14 ar  
     4    10    11 ar  
     5    14    13 ar  
     6    11    12 ar  
     7    13    12 ar  
     8    13     1 1   
     9    12    15 1   
    10    18     1 2   
    11     1    17 1   
    12    15    16 2   
    13    17    16 1   
    14    17     2 1   
    15    16    22 1   
    16    31    32 1   
    17    31    30 2   
    18    32    33 1   
    19     2    21 ar  
    20     2    19 ar  
    21    21     4 ar  
    22     5    22 1   
    23    19     3 ar  
    24    22    23 1   
    25    33    34 2   
    26    30    29 1   
    27    30    34 1   
    28     4    20 ar  
    29    23     6 1   
    30    29    28 3   
    31     3    20 ar  
    32    28    24 1   
    33     6    24 ar  
    34     6    26 ar  
    35    24     7 ar  
    36    26     8 ar  
    37     7    27 1   
    38     7    25 ar  
    39     8    25 ar  
    40     3    35 1   
    41     4    36 1   
    42     5    37 1   
    43     5    38 1   
    44     5    39 1   
    45     8    40 1   
    46     9    41 1   
    47    10    42 1   
    48    11    43 1   
    49    19    44 1   
    50    20    45 1   
    51    21    46 1   
    52    22    47 1   
    53    23    48 1   
    54    27    49 1   
    55    27    50 1   
    56    31    51 1   
    57    32    52 1   
    58    34    53 1   
@<TRIPOS>SUBSTRUCTURE
     1 68R         1 TEMP              0 ****  ****    0 ROOT
