@<TRIPOS>MOLECULE
molecule
   54    56     1     0     0
SMALL
bcc


@<TRIPOS>ATOM
      1 C1           0.0000     0.0000     0.0000 ca         1 68T       0.216100
      2 C2           1.3840     0.0000     0.0000 ca         1 68T      -0.333000
      3 C3           2.0810     0.0000     1.1960 ca         1 68T       0.230100
      4 O1           3.4390    -0.0000     1.1900 os         1 68T      -0.310900
      5 O2           2.5930    -1.3380     6.1560 o          1 68T      -0.468300
      6 O3           2.7240     5.4050     8.1970 os         1 68T      -0.350900
      7 C11          4.7790     4.6180     6.8570 ca         1 68T      -0.333000
      8 C12          5.2310     3.4730     6.3640 ca         1 68T      -0.009000
      9 C13          4.7220     2.6560     6.4110 ca         1 68T      -0.130000
     10 C14         -0.0090     0.0010     2.4200 ca         1 68T       0.003000
     11 C15         -0.7050     0.0000     1.2150 ca         1 68T      -0.092000
     12 C16         -2.1820     0.0000     1.2140 cc         1 68T       0.024900
     13 C17         -2.9650    -0.8520     1.9290 cd         1 68T      -0.153000
     14 C18         -4.3160    -0.6610     1.7680 cd         1 68T      -0.135000
     15 C19         -4.6510     0.3500     0.9190 cc         1 68T       0.056900
     16 C20         -5.9890     0.7410     0.5890 cg         1 68T      -0.078000
     17 C21         -7.0830     1.0540     0.3000 c1         1 68T      -0.124100
     18 C22         -8.4930     1.5710     0.4860 c3         1 68T       0.340500
     19 O5           3.0360     0.0610     3.7820 o          1 68T      -0.331100
     20 N            1.1710    -0.1290     4.7810 ns         1 68T      -0.701300
     21 S            1.7130    -0.0900     6.3850 sy         1 68T       0.554900
     22 O4           0.7400    -0.7280     7.3000 o          1 68T      -0.468300
     23 C7           3.4350     2.2790     6.9380 ca         1 68T       0.339500
     24 C9           3.2540     4.4820     7.5570 ca         1 68T       0.212100
     25 C10          3.2500     6.8450     8.5440 c3         1 68T       0.194700
     26 C8           2.7820     3.2750     7.4920 ca         1 68T      -0.219000
     27 C5           1.3860     0.0010     2.4160 ca         1 68T      -0.349600
     28 C4           4.0810    -0.0010    -0.0860 c3         1 68T       0.120700
     29 O           -0.6780     0.0050    -1.1740 os         1 68T      -0.310900
     30 C            0.1010     0.0100    -2.3730 c3         1 68T       0.125700
     31 S1          -3.1920     1.1070     0.2950 ss         1 68T      -0.072800
     32 O6          -8.9970     2.0610    -0.4370 oh         1 68T      -0.557800
     33 H1           1.9260    -0.0000    -0.9380 ha         1 68T       0.152000
     34 H2           5.3450     5.5400     6.7970 ha         1 68T       0.136000
     35 H3           6.2060     3.4710     5.8910 ha         1 68T       0.111000
     36 H4           5.2590     1.8210     5.9780 ha         1 68T       0.095000
     37 H5          -0.5510     0.0010     3.3580 ha         1 68T       0.150000
     38 H6          -2.6140    -1.6770     2.5380 ha         1 68T       0.154000
     39 H7          -5.1000    -1.2350     2.2490 ha         1 68T       0.155000
     40 H8          -9.1130     0.7410     0.8030 h1         1 68T      -0.044800
     41 H9          -8.4770     2.3020     1.2850 h1         1 68T      -0.044800
     42 H10          0.2080    -0.3150     4.5830 hn         1 68T       0.325500
     43 H11          2.5180     7.3600     9.1550 h1         1 68T       0.057700
     44 H12          3.4110     7.4010     7.6280 h1         1 68T       0.057700
     45 H13          4.1830     6.7680     9.0880 h1         1 68T       0.057700
     46 H14          1.8030     3.0830     7.9160 ha         1 68T       0.133000
     47 H15          4.9860    -0.5950    -0.0350 h1         1 68T       0.047367
     48 H16          4.3310     1.0150    -0.3650 h1         1 68T       0.047367
     49 H17          3.4130    -0.4250    -0.8270 h1         1 68T       0.047367
     50 H18          0.8240    -0.7950    -2.3370 h1         1 68T       0.045700
     51 H19          0.6190     0.9570    -2.4630 h1         1 68T       0.045700
     52 H20         -0.5510    -0.1280    -3.2270 h1         1 68T       0.045700
     53 H21         -9.8830     2.3020    -0.2200 ho         1 68T       0.446000
     54 C6           2.1280     0.0000     3.6890 c          1 68T       0.885700
@<TRIPOS>BOND
     1    18    32 1
     2    18    17 1
     3    17    16 3
     4    16    15 1
     5    15    14 2
     6    15    31 1
     7    14    13 1
     8    13    12 2
     9    31    12 1
    10    12    11 1
    11    11    10 ar
    12    11     1 ar
    13    29     1 1
    14    29    30 1
    15    10    27 ar
    16     1     2 ar
    17    27    54 1
    18    27     3 ar
    19     2     3 ar
    20    20    54 1
    21    20    21 1
    22    54    19 2
    23     5    21 2
    24    22    21 2
    25     3     4 1
    26    21    23 1
    27     4    28 1
    28    23    26 ar
    29    23     9 ar
    30    26    24 ar
    31     9     8 ar
    32    25     6 1
    33    24     6 1
    34    24     7 ar
    35     8     7 ar
    36     2    33 1
    37     7    34 1
    38     8    35 1
    39     9    36 1
    40    10    37 1
    41    13    38 1
    42    14    39 1
    43    18    40 1
    44    18    41 1
    45    20    42 1
    46    25    43 1
    47    25    44 1
    48    25    45 1
    49    26    46 1
    50    28    47 1
    51    28    48 1
    52    28    49 1
    53    30    50 1
    54    30    51 1
    55    30    52 1
    56    32    53 1
@<TRIPOS>SUBSTRUCTURE
     1 68T         1 TEMP              0 ****  ****    0 ROOT
