@<TRIPOS>MOLECULE
molecule
   42    45     1     0     0
SMALL
bcc


@<TRIPOS>ATOM
      1 C1           0.0000     0.0000     0.0000 c3         1 68U       0.101300
      2 C3           2.1380     0.0000     1.1680 c          1 68U       0.567600
      3 C5           3.6210    -0.0000     1.1690 ca         1 68U       0.410800
      4 C7           5.5940     0.0070    -0.0270 ca         1 68U       0.443600
      5 C8           6.3500     0.0010     1.1770 ca         1 68U      -0.275600
      6 C11          7.7510     0.0020     1.0980 ca         1 68U       0.452200
      7 C15          5.5840     0.0230    -2.5490 cp         1 68U      -0.061000
      8 C16          5.9130     0.9480    -3.5350 ca         1 68U      -0.054000
      9 C17          5.2400     0.9590    -4.7470 ca         1 68U      -0.138300
     10 C18          5.4860     1.9050    -5.9140 c3         1 68U      -0.144300
     11 N22          3.5860     0.1130    -6.2440 nh         1 68U      -0.652900
     12 C23          2.4990    -0.7660    -6.6820 c3         1 68U       0.256100
     13 C24          4.2300     0.0530    -5.0010 ca         1 68U       0.155600
     14 N2           1.4650     0.0000     0.0000 ns         1 68U      -0.566900
     15 O4           1.5310    -0.0020     2.2200 o          1 68U      -0.601100
     16 N6           4.2670     0.0070     0.0170 nb         1 68U      -0.681000
     17 C9           5.6720    -0.0000     2.4090 ca         1 68U      -0.069000
     18 C10          4.3060    -0.0010     2.3930 ca         1 68U      -0.209300
     19 N12          8.3500     0.0090    -0.0700 nb         1 68U      -0.684000
     20 C13          7.6880     0.0150    -1.2160 ca         1 68U       0.428200
     21 C14          6.3040     0.0150    -1.2560 cp         1 68U      -0.190600
     22 S19          4.2550     1.3430    -7.1410 s6         1 68U       1.304900
     23 O21          3.2130     2.2950    -7.3110 o          1 68U      -0.613800
     24 C25          3.9040    -0.8820    -3.9960 ca         1 68U      -0.162000
     25 C26          4.5600    -0.8940    -2.7930 ca         1 68U      -0.058000
     26 H1          -0.3610    -0.8830     0.5140 h1         1 68U       0.044367
     27 H2          -0.3610     0.8860     0.5080 h1         1 68U       0.044367
     28 H3          -0.3610    -0.0030    -1.0210 h1         1 68U       0.044367
     29 H4           8.3410    -0.0030     2.0060 h4         1 68U       0.031100
     30 H5           6.7020     1.6680    -3.3520 ha         1 68U       0.142000
     31 H6           6.4880     1.7650    -6.3010 h1         1 68U       0.117200
     32 H7           5.2750     2.9250    -5.6160 h1         1 68U       0.117200
     33 H8           1.6560    -0.6610    -6.0100 h1         1 68U       0.048033
     34 H9           2.8400    -1.7940    -6.6760 h1         1 68U       0.048033
     35 H10          2.1960    -0.4920    -7.6860 h1         1 68U       0.048033
     36 H11          1.9650     0.0410    -0.8660 hn         1 68U       0.334500
     37 H12          6.2180    -0.0010     3.3440 ha         1 68U       0.150000
     38 H13          3.7530    -0.0610     3.3230 ha         1 68U       0.170000
     39 H14          8.2430     0.0210    -2.1470 h4         1 68U       0.033100
     40 H15          3.1120    -1.5990    -4.1750 ha         1 68U       0.138000
     41 H16          4.2910    -1.6210    -2.0360 ha         1 68U       0.148000
     42 O20          4.8780     0.7060    -8.2470 o          1 68U      -0.613800
@<TRIPOS>BOND
     1    12    11 1   
     2    11    22 1   
     3    11    13 1   
     4    23    22 2   
     5    24    13 ar  
     6    24    25 ar  
     7    22    42 2   
     8    22    10 1   
     9    13     9 ar  
    10    25     7 ar  
    11     9    10 1   
    12     9     8 ar  
    13     7     8 ar  
    14     7    21 1   
    15    20    21 ar  
    16    20    19 ar  
    17    21     4 ar  
    18    19     6 ar  
    19     4    16 ar  
    20     4     5 ar  
    21    16     3 ar  
    22     6     5 ar  
    23     5    17 ar  
    24    14     1 1   
    25    14     2 1   
    26     3     2 1   
    27     3    18 ar  
    28     2    15 2   
    29    17    18 ar  
    30     1    26 1   
    31     1    27 1   
    32     1    28 1   
    33     6    29 1   
    34     8    30 1   
    35    10    31 1   
    36    10    32 1   
    37    12    33 1   
    38    12    34 1   
    39    12    35 1   
    40    14    36 1   
    41    17    37 1   
    42    18    38 1   
    43    20    39 1   
    44    24    40 1   
    45    25    41 1   
@<TRIPOS>SUBSTRUCTURE
     1 68U         1 TEMP              0 ****  ****    0 ROOT
