@<TRIPOS>MOLECULE
68U
   42    45     1     0     0
SMALL
bcc


@<TRIPOS>ATOM
      1 C1           0.0000     0.0000     0.0000 c3         1 68U       0.082300
      2 C3           2.1380     0.0000     1.1680 c          1 68U       0.474600
      3 C5           3.6210    -0.0000     1.1690 ca         1 68U       0.348800
      4 C7           5.5940     0.0070    -0.0270 ca         1 68U       0.391600
      5 C8           6.3500     0.0010     1.1770 ca         1 68U      -0.262600
      6 C11          7.7510     0.0020     1.0980 ca         1 68U       0.430200
      7 C15          5.5840     0.0230    -2.5490 cp         1 68U      -0.062000
      8 C16          5.9130     0.9480    -3.5350 ca         1 68U      -0.029000
      9 C17          5.2400     0.9590    -4.7470 ca         1 68U      -0.153300
     10 C18          5.4860     1.9050    -5.9140 c3         1 68U       0.086700
     11 N22          3.5860     0.1130    -6.2440 nh         1 68U      -0.335900
     12 C23          2.4990    -0.7660    -6.6820 c3         1 68U       0.298100
     13 C24          4.2300     0.0530    -5.0010 ca         1 68U       0.086600
     14 N2           1.4650     0.0000     0.0000 ns         1 68U      -0.171900
     15 O4           1.5310    -0.0020     2.2200 o          1 68U      -0.647100
     16 N6           4.2670     0.0070     0.0170 nb         1 68U      -0.561000
     17 C9           5.6720    -0.0000     2.4090 ca         1 68U      -0.045000
     18 C10          4.3060    -0.0010     2.3930 ca         1 68U      -0.169300
     19 N12          8.3500     0.0090    -0.0700 nb         1 68U      -0.572000
     20 C13          7.6880     0.0150    -1.2160 ca         1 68U       0.405200
     21 C14          6.3040     0.0150    -1.2560 cp         1 68U      -0.179600
     22 S19          4.2550     1.3430    -7.1410 s6         1 68U       0.942900
     23 O21          3.2130     2.2950    -7.3110 o          1 68U      -0.572800
     24 C25          3.9040    -0.8820    -3.9960 ca         1 68U      -0.147000
     25 C26          4.5600    -0.8940    -2.7930 ca         1 68U      -0.033000
     26 H1          -0.3610    -0.8830     0.5140 h1         1 68U       0.010367
     27 H2          -0.3610     0.8860     0.5080 h1         1 68U       0.010367
     28 H3          -0.3610    -0.0030    -1.0210 h1         1 68U       0.010367
     29 H4           8.3410    -0.0030     2.0060 h4         1 68U      -0.014900
     30 H5           6.7020     1.6680    -3.3520 ha         1 68U       0.110000
     31 H6           6.4880     1.7650    -6.3010 h1         1 68U       0.081700
     32 H7           5.2750     2.9250    -5.6160 h1         1 68U       0.081700
     33 H8           1.6560    -0.6610    -6.0100 h1         1 68U       0.005367
     34 H9           2.8400    -1.7940    -6.6760 h1         1 68U       0.005367
     35 H10          2.1960    -0.4920    -7.6860 h1         1 68U       0.005367
     36 H11          1.9650     0.0410    -0.8660 hn         1 68U       0.189500
     37 H12          6.2180    -0.0010     3.3440 ha         1 68U       0.117000
     38 H13          3.7530    -0.0610     3.3230 ha         1 68U       0.141000
     39 H14          8.2430     0.0210    -2.1470 h4         1 68U      -0.012900
     40 H15          3.1120    -1.5990    -4.1750 ha         1 68U       0.112000
     41 H16          4.2910    -1.6210    -2.0360 ha         1 68U       0.114000
     42 O20          4.8780     0.7060    -8.2470 o          1 68U      -0.572800
@<TRIPOS>BOND
     1     1    14 1   
     2     1    26 1   
     3     1    27 1   
     4     1    28 1   
     5     2     3 1   
     6     2    14 1   
     7     2    15 2   
     8     3    16 ar  
     9     3    18 ar  
    10     4     5 ar  
    11     4    16 ar  
    12     4    21 ar  
    13     5     6 ar  
    14     5    17 ar  
    15     6    19 ar  
    16     6    29 1   
    17     7     8 ar  
    18     7    21 1   
    19     7    25 ar  
    20     8     9 ar  
    21     8    30 1   
    22     9    10 1   
    23     9    13 ar  
    24    10    22 1   
    25    10    31 1   
    26    10    32 1   
    27    11    12 1   
    28    11    13 1   
    29    11    22 1   
    30    12    33 1   
    31    12    34 1   
    32    12    35 1   
    33    13    24 ar  
    34    14    36 1   
    35    17    18 ar  
    36    17    37 1   
    37    18    38 1   
    38    19    20 ar  
    39    20    21 ar  
    40    20    39 1   
    41    22    23 2   
    42    22    42 2   
    43    24    25 ar  
    44    24    40 1   
    45    25    41 1   
@<TRIPOS>SUBSTRUCTURE
     1 68U         1 TEMP              0 ****  ****    0 ROOT
