@<TRIPOS>MOLECULE
68V
   30    31     1     0     0
SMALL
bcc


@<TRIPOS>ATOM
      1 OAA          0.0000     0.0000     0.0000 o          1 68V      -0.881300
      2 CAO          1.2150     0.0000     0.0000 c          1 68V       0.972200
      3 OAC          1.8890     0.0000     1.1670 o          1 68V      -0.881300
      4 CAT          1.9530    -0.0090    -1.2790 ca         1 68V      -0.087600
      5 CAL          1.2590    -0.0150    -2.4890 ca         1 68V      -0.070000
      6 CAG          3.3500    -0.0040    -1.2820 ca         1 68V      -0.071000
      7 CAE          4.0370    -0.0110    -2.4790 ca         1 68V      -0.132000
      8 CAF          3.3490    -0.0230    -3.6770 ca         1 68V      -0.161000
      9 CAS          1.9580    -0.0220    -3.6860 ca         1 68V      -0.139400
     10 NAN          1.2660    -0.0290    -4.9020 ns         1 68V      -0.033100
     11 CAP          0.1020    -0.7000    -5.0120 c          1 68V       0.541100
     12 OAB         -0.3880    -1.2290    -4.0320 o          1 68V      -0.655100
     13 NAM         -0.5170    -0.7840    -6.2050 ns         1 68V      -0.075100
     14 CAR         -1.7720    -1.3960    -6.3000 ca         1 68V      -0.048400
     15 CAJ         -2.7150    -0.9150    -7.1990 ca         1 68V      -0.121000
     16 CAH         -3.9520    -1.5220    -7.2920 ca         1 68V      -0.068000
     17 CAQ         -4.2520    -2.6080    -6.4900 ca         1 68V       0.020100
     18 Br          -5.9480    -3.4370    -6.6190 br         1 68V      -0.164100
     19 CAI         -3.3150    -3.0900    -5.5930 ca         1 68V      -0.068000
     20 CAK         -2.0740    -2.4900    -5.5000 ca         1 68V      -0.121000
     21 H2           0.1750    -0.0140    -2.4930 ha         1 68V       0.163000
     22 H3           3.8940     0.0050    -0.3450 ha         1 68V       0.129000
     23 H4           5.1200    -0.0100    -2.4790 ha         1 68V       0.083000
     24 H5           3.8940    -0.0280    -4.6130 ha         1 68V       0.080000
     25 H6           1.6270     0.4780    -5.6850 hn         1 68V       0.143500
     26 H7          -0.0650    -0.4400    -7.0290 hn         1 68V       0.155500
     27 H8          -2.4800    -0.0650    -7.8280 ha         1 68V       0.133000
     28 H9          -4.6870    -1.1470    -7.9930 ha         1 68V       0.112500
     29 H10         -3.5530    -3.9420    -4.9670 ha         1 68V       0.112500
     30 H11         -1.3410    -2.8680    -4.7980 ha         1 68V       0.133000
@<TRIPOS>BOND
     1     1     2 1   
     2     2     3 1   
     3     2     4 1   
     4     4     5 ar  
     5     4     6 ar  
     6     5     9 ar  
     7     5    21 1   
     8     6     7 ar  
     9     6    22 1   
    10     7     8 ar  
    11     7    23 1   
    12     8     9 ar  
    13     8    24 1   
    14     9    10 1   
    15    10    11 1   
    16    10    25 1   
    17    11    12 2   
    18    11    13 1   
    19    13    14 1   
    20    13    26 1   
    21    14    15 ar  
    22    14    20 ar  
    23    15    16 ar  
    24    15    27 1   
    25    16    17 ar  
    26    16    28 1   
    27    17    18 1   
    28    17    19 ar  
    29    19    20 ar  
    30    19    29 1   
    31    20    30 1   
@<TRIPOS>SUBSTRUCTURE
     1 68V         1 TEMP              0 ****  ****    0 ROOT
