@<TRIPOS>MOLECULE
molecule
   30    31     1     0     0
SMALL
bcc


@<TRIPOS>ATOM
      1 OAA          0.0000     0.0000     0.0000 o          1 68V      -0.833300
      2 CAO          1.2150     0.0000     0.0000 c          1 68V       0.882200
      3 OAC          1.8890     0.0000     1.1670 o          1 68V      -0.833300
      4 CAT          1.9530    -0.0090    -1.2790 ca         1 68V      -0.089600
      5 CAL          1.2590    -0.0150    -2.4890 ca         1 68V      -0.097000
      6 CAG          3.3500    -0.0040    -1.2820 ca         1 68V      -0.104000
      7 CAE          4.0370    -0.0110    -2.4790 ca         1 68V      -0.152000
      8 CAF          3.3490    -0.0230    -3.6770 ca         1 68V      -0.184000
      9 CAS          1.9580    -0.0220    -3.6860 ca         1 68V       0.015600
     10 NAN          1.2660    -0.0290    -4.9020 ns         1 68V      -0.480100
     11 CAP          0.1020    -0.7000    -5.0120 c          1 68V       0.771100
     12 OAB         -0.3880    -1.2290    -4.0320 o          1 68V      -0.609100
     13 NAM         -0.5170    -0.7840    -6.2050 ns         1 68V      -0.502100
     14 CAR         -1.7720    -1.3960    -6.3000 ca         1 68V       0.097600
     15 CAJ         -2.7150    -0.9150    -7.1990 ca         1 68V      -0.147000
     16 CAH         -3.9520    -1.5220    -7.2920 ca         1 68V      -0.088500
     17 CAQ         -4.2520    -2.6080    -6.4900 ca         1 68V      -0.041900
     18 Br          -5.9480    -3.4370    -6.6190 br         1 68V      -0.122100
     19 CAI         -3.3150    -3.0900    -5.5930 ca         1 68V      -0.088500
     20 CAK         -2.0740    -2.4900    -5.5000 ca         1 68V      -0.147000
     21 H2           0.1750    -0.0140    -2.4930 ha         1 68V       0.182000
     22 H3           3.8940     0.0050    -0.3450 ha         1 68V       0.155000
     23 H4           5.1200    -0.0100    -2.4790 ha         1 68V       0.106000
     24 H5           3.8940    -0.0280    -4.6130 ha         1 68V       0.098000
     25 H6           1.6270     0.4780    -5.6850 hn         1 68V       0.301500
     26 H7          -0.0650    -0.4400    -7.0290 hn         1 68V       0.311500
     27 H8          -2.4800    -0.0650    -7.8280 ha         1 68V       0.158000
     28 H9          -4.6870    -1.1470    -7.9930 ha         1 68V       0.141000
     29 H10         -3.5530    -3.9420    -4.9670 ha         1 68V       0.141000
     30 H11         -1.3410    -2.8680    -4.7980 ha         1 68V       0.158000
@<TRIPOS>BOND
     1     1     2 1   
     2     6     7 ar  
     3     6     4 ar  
     4     2     4 1   
     5     2     3 1   
     6     7     8 ar  
     7     4     5 ar  
     8     8     9 ar  
     9     5     9 ar  
    10     9    10 1   
    11    10    11 1   
    12    12    11 2   
    13    11    13 1   
    14    13    14 1   
    15    20    14 ar  
    16    20    19 ar  
    17    14    15 ar  
    18    19    17 ar  
    19    15    16 ar  
    20    17    16 ar  
    21    17    18 1   
    22     5    21 1   
    23     6    22 1   
    24     7    23 1   
    25     8    24 1   
    26    10    25 1   
    27    13    26 1   
    28    15    27 1   
    29    16    28 1   
    30    19    29 1   
    31    20    30 1   
@<TRIPOS>SUBSTRUCTURE
     1 68V         1 TEMP              0 ****  ****    0 ROOT
