@<TRIPOS>MOLECULE
68W
   40    42     1     0     0
SMALL
bcc


@<TRIPOS>ATOM
      1 OAA          0.0000     0.0000     0.0000 o          1 68W      -0.882300
      2 CAS          1.2150     0.0000     0.0000 c          1 68W       0.972200
      3 OAC          1.8890     0.0000     1.1670 o          1 68W      -0.882300
      4 CAW          1.9520    -0.0060    -1.2800 ca         1 68W      -0.088600
      5 CAO          1.2570    -0.0120    -2.4900 ca         1 68W      -0.071000
      6 CAK          3.3490     0.0000    -1.2830 ca         1 68W      -0.072000
      7 CAG          4.0360     0.0010    -2.4810 ca         1 68W      -0.132000
      8 CAI          3.3460    -0.0050    -3.6780 ca         1 68W      -0.162000
      9 CAU          1.9560    -0.0170    -3.6860 ca         1 68W      -0.136400
     10 NAQ          1.2630    -0.0230    -4.9020 ns         1 68W      -0.036100
     11 CAT          0.1050    -0.7030    -5.0140 c          1 68W       0.543100
     12 OAB         -0.3810    -1.2410    -4.0380 o          1 68W      -0.656100
     13 NAR         -0.5140    -0.7870    -6.2080 ns         1 68W      -0.077100
     14 CAV         -1.7640    -1.4100    -6.3060 ca         1 68W      -0.054400
     15 CAP         -2.7080    -0.9320    -7.2010 ca         1 68W      -0.143000
     16 CAJ         -2.0560    -2.5110    -5.5090 ca         1 68W      -0.094000
     17 CAH         -3.2880    -3.1290    -5.6030 ca         1 68W      -0.081000
     18 CAN         -4.2370    -2.6560    -6.4880 ca         1 68W      -0.123000
     19 CAY         -3.9510    -1.5560    -7.2950 cp         1 68W      -0.031000
     20 CAX         -4.9680    -1.0450    -8.2460 cp         1 68W      -0.010000
     21 CAL         -6.2130    -1.6650    -8.3380 ca         1 68W      -0.104500
     22 CAE         -7.1560    -1.1870    -9.2250 ca         1 68W      -0.101000
     23 CAD         -6.8680    -0.0950   -10.0230 ca         1 68W      -0.115000
     24 CAF         -5.6330     0.5240    -9.9370 ca         1 68W      -0.101000
     25 CAM         -4.6850     0.0590    -9.0480 ca         1 68W      -0.104500
     26 H2           0.1740    -0.0210    -2.4930 ha         1 68W       0.163000
     27 H3           3.8930     0.0050    -0.3460 ha         1 68W       0.129000
     28 H4           5.1190     0.0080    -2.4820 ha         1 68W       0.083000
     29 H5           3.8900    -0.0060    -4.6150 ha         1 68W       0.080000
     30 H6           1.6190     0.4910    -5.6830 hn         1 68W       0.143500
     31 H7          -0.0670    -0.4300    -7.0290 hn         1 68W       0.154500
     32 H8          -2.4810    -0.0770    -7.8260 ha         1 68W       0.109000
     33 H9          -1.3160    -2.8870    -4.8130 ha         1 68W       0.158000
     34 H10         -3.5120    -3.9850    -4.9790 ha         1 68W       0.103000
     35 H11         -5.2020    -3.1430    -6.5590 ha         1 68W       0.105000
     36 H12         -6.4400    -2.5200    -7.7130 ha         1 68W       0.112500
     37 H13         -8.1240    -1.6680    -9.2960 ha         1 68W       0.097000
     38 H14         -7.6100     0.2750   -10.7200 ha         1 68W       0.096000
     39 H15         -5.4140     1.3810   -10.5630 ha         1 68W       0.097000
     40 H16         -3.7190     0.5440    -8.9820 ha         1 68W       0.112500
@<TRIPOS>BOND
     1     1     2 1   
     2     2     3 1   
     3     2     4 1   
     4     4     5 ar  
     5     4     6 ar  
     6     5     9 ar  
     7     5    26 1   
     8     6     7 ar  
     9     6    27 1   
    10     7     8 ar  
    11     7    28 1   
    12     8     9 ar  
    13     8    29 1   
    14     9    10 1   
    15    10    11 1   
    16    10    30 1   
    17    11    12 2   
    18    11    13 1   
    19    13    14 1   
    20    13    31 1   
    21    14    15 ar  
    22    14    16 ar  
    23    15    19 ar  
    24    15    32 1   
    25    16    17 ar  
    26    16    33 1   
    27    17    18 ar  
    28    17    34 1   
    29    18    19 ar  
    30    18    35 1   
    31    19    20 1   
    32    20    21 ar  
    33    20    25 ar  
    34    21    22 ar  
    35    21    36 1   
    36    22    23 ar  
    37    22    37 1   
    38    23    24 ar  
    39    23    38 1   
    40    24    25 ar  
    41    24    39 1   
    42    25    40 1   
@<TRIPOS>SUBSTRUCTURE
     1 68W         1 TEMP              0 ****  ****    0 ROOT
