@<TRIPOS>MOLECULE
68Y
   42    44     1     0     0
SMALL
bcc


@<TRIPOS>ATOM
      1 CAJ          0.0000     0.0000     0.0000 ca         1 68Y      -0.179000
      2 CAF          1.3840     0.0000     0.0000 ca         1 68Y       0.045600
      3 NAE          2.0960     0.0000     1.2050 nu         1 68Y      -0.458600
      4 CAD          2.7740     1.2290     1.6260 c3         1 68Y       0.146500
      5 CAH          1.7450     2.2040     2.2020 c3         1 68Y       0.000900
      6 CAC          3.4700     1.8740     0.4270 c3         1 68Y      -0.137400
      7 CAB          4.1810     0.8250    -0.3860 c          1 68Y       0.598500
      8 OAI          5.3890     0.7240    -0.3170 o          1 68Y      -0.670500
      9 NAA          3.4830    -0.0040    -1.1920 ns         1 68Y      -0.044100
     10 CAG          2.0820     0.0350    -1.2090 ca         1 68Y      -0.176400
     11 CAM          1.3890     0.0960    -2.4060 ca         1 68Y      -0.065000
     12 CAL          0.0060     0.1040    -2.4030 ca         1 68Y      -0.131000
     13 CAK         -0.6900     0.0510    -1.2040 ca         1 68Y       0.154100
     14 OAN         -2.0490     0.0510    -1.2070 os         1 68Y      -0.297900
     15 CAO         -2.7010     0.1160     0.0630 c3         1 68Y       0.224400
     16 CAP         -2.8230    -1.2920     0.6470 c3         1 68Y      -0.036100
     17 CAQ         -4.0760     0.7090    -0.1090 ca         1 68Y      -0.106300
     18 CAR         -4.5650     1.6020     0.8260 ca         1 68Y      -0.082000
     19 CAS         -5.8260     2.1460     0.6700 ca         1 68Y      -0.102500
     20 CAT         -6.5990     1.7960    -0.4220 ca         1 68Y      -0.095000
     21 CAU         -6.1100     0.9030    -1.3570 ca         1 68Y      -0.102500
     22 CAV         -4.8460     0.3640    -1.2040 ca         1 68Y      -0.082000
     23 H1          -0.5430    -0.0410     0.9360 ha         1 68Y       0.140000
     24 H2           2.7490    -0.7580     1.2070 hn         1 68Y       0.262800
     25 H3           3.5120     0.9890     2.3820 h1         1 68Y       0.042700
     26 H4           1.0870     1.6750     2.8810 hc         1 68Y       0.010033
     27 H5           1.1620     2.6330     1.3960 hc         1 68Y       0.010033
     28 H6           2.2570     2.9940     2.7380 hc         1 68Y       0.010033
     29 H7           2.7310     2.3670    -0.1940 hc         1 68Y       0.047200
     30 H8           4.1900     2.6020     0.7810 hc         1 68Y       0.047200
     31 H9           3.9690    -0.6510    -1.7810 hn         1 68Y       0.181500
     32 H10          1.9300     0.1370    -3.3440 ha         1 68Y       0.111000
     33 H11         -0.5360     0.1440    -3.3400 ha         1 68Y       0.120000
     34 H12         -2.1210     0.7370     0.7360 h1         1 68Y       0.026700
     35 H13         -3.8700    -1.5430     0.7700 hc         1 68Y       0.018700
     36 H14         -2.3270    -1.3290     1.6090 hc         1 68Y       0.018700
     37 H15         -2.3580    -2.0030    -0.0260 hc         1 68Y       0.018700
     38 H16         -3.9600     1.8760     1.6820 ha         1 68Y       0.109500
     39 H17         -6.2090     2.8460     1.4020 ha         1 68Y       0.104000
     40 H18         -7.5890     2.2200    -0.5440 ha         1 68Y       0.103000
     41 H19         -6.7140     0.6310    -2.2140 ha         1 68Y       0.104000
     42 H20         -4.4630    -0.3360    -1.9370 ha         1 68Y       0.109500
@<TRIPOS>BOND
     1     1     2 ar  
     2     1    13 ar  
     3     1    23 1   
     4     2     3 1   
     5     2    10 ar  
     6     3     4 1   
     7     3    24 1   
     8     4     5 1   
     9     4     6 1   
    10     4    25 1   
    11     5    26 1   
    12     5    27 1   
    13     5    28 1   
    14     6     7 1   
    15     6    29 1   
    16     6    30 1   
    17     7     8 2   
    18     7     9 1   
    19     9    10 1   
    20     9    31 1   
    21    10    11 ar  
    22    11    12 ar  
    23    11    32 1   
    24    12    13 ar  
    25    12    33 1   
    26    13    14 1   
    27    14    15 1   
    28    15    16 1   
    29    15    17 1   
    30    15    34 1   
    31    16    35 1   
    32    16    36 1   
    33    16    37 1   
    34    17    18 ar  
    35    17    22 ar  
    36    18    19 ar  
    37    18    38 1   
    38    19    20 ar  
    39    19    39 1   
    40    20    21 ar  
    41    20    40 1   
    42    21    22 ar  
    43    21    41 1   
    44    22    42 1   
@<TRIPOS>SUBSTRUCTURE
     1 68Y         1 TEMP              0 ****  ****    0 ROOT
