@<TRIPOS>MOLECULE
molecule
   42    44     1     0     0
SMALL
bcc


@<TRIPOS>ATOM
      1 CAJ          0.0000     0.0000     0.0000 ca         1 68Y      -0.187000
      2 CAF          1.3840     0.0000     0.0000 ca         1 68Y       0.123600
      3 NAE          2.0960     0.0000     1.2050 nu         1 68Y      -0.743600
      4 CAD          2.7740     1.2290     1.6260 c3         1 68Y       0.203500
      5 CAH          1.7450     2.2040     2.2020 c3         1 68Y      -0.089100
      6 CAC          3.4700     1.8740     0.4270 c3         1 68Y      -0.191400
      7 CAB          4.1810     0.8250    -0.3860 c          1 68Y       0.697500
      8 OAI          5.3890     0.7240    -0.3170 o          1 68Y      -0.633500
      9 NAA          3.4830    -0.0040    -1.1920 ns         1 68Y      -0.483100
     10 CAG          2.0820     0.0350    -1.2090 ca         1 68Y      -0.033400
     11 CAM          1.3890     0.0960    -2.4060 ca         1 68Y      -0.105000
     12 CAL          0.0060     0.1040    -2.4030 ca         1 68Y      -0.149000
     13 CAK         -0.6900     0.0510    -1.2040 ca         1 68Y       0.139100
     14 OAN         -2.0490     0.0510    -1.2070 os         1 68Y      -0.322900
     15 CAO         -2.7010     0.1160     0.0630 c3         1 68Y       0.187400
     16 CAP         -2.8230    -1.2920     0.6470 c3         1 68Y      -0.120100
     17 CAQ         -4.0760     0.7090    -0.1090 ca         1 68Y      -0.090300
     18 CAR         -4.5650     1.6020     0.8260 ca         1 68Y      -0.108500
     19 CAS         -5.8260     2.1460     0.6700 ca         1 68Y      -0.130000
     20 CAT         -6.5990     1.7960    -0.4220 ca         1 68Y      -0.122000
     21 CAU         -6.1100     0.9030    -1.3570 ca         1 68Y      -0.130000
     22 CAV         -4.8460     0.3640    -1.2040 ca         1 68Y      -0.108500
     23 H1          -0.5430    -0.0410     0.9360 ha         1 68Y       0.156000
     24 H2           2.7490    -0.7580     1.2070 hn         1 68Y       0.382800
     25 H3           3.5120     0.9890     2.3820 h1         1 68Y       0.072700
     26 H4           1.0870     1.6750     2.8810 hc         1 68Y       0.043367
     27 H5           1.1620     2.6330     1.3960 hc         1 68Y       0.043367
     28 H6           2.2570     2.9940     2.7380 hc         1 68Y       0.043367
     29 H7           2.7310     2.3670    -0.1940 hc         1 68Y       0.077200
     30 H8           4.1900     2.6020     0.7810 hc         1 68Y       0.077200
     31 H9           3.9690    -0.6510    -1.7810 hn         1 68Y       0.336500
     32 H10          1.9300     0.1370    -3.3440 ha         1 68Y       0.142000
     33 H11         -0.5360     0.1440    -3.3400 ha         1 68Y       0.149000
     34 H12         -2.1210     0.7370     0.7360 h1         1 68Y       0.055700
     35 H13         -3.8700    -1.5430     0.7700 hc         1 68Y       0.051033
     36 H14         -2.3270    -1.3290     1.6090 hc         1 68Y       0.051033
     37 H15         -2.3580    -2.0030    -0.0260 hc         1 68Y       0.051033
     38 H16         -3.9600     1.8760     1.6820 ha         1 68Y       0.136000
     39 H17         -6.2090     2.8460     1.4020 ha         1 68Y       0.132000
     40 H18         -7.5890     2.2200    -0.5440 ha         1 68Y       0.130000
     41 H19         -6.7140     0.6310    -2.2140 ha         1 68Y       0.132000
     42 H20         -4.4630    -0.3360    -1.9370 ha         1 68Y       0.136000
@<TRIPOS>BOND
     1    21    20 ar  
     2    21    22 ar  
     3     5     4 1   
     4    20    19 ar  
     5    22    17 ar  
     6     4     3 1   
     7     4     6 1   
     8     3     2 1   
     9    19    18 ar  
    10    17    15 1   
    11    17    18 ar  
    12    15    16 1   
    13    15    14 1   
    14     1     2 ar  
    15     1    13 ar  
    16     6     7 1   
    17     2    10 ar  
    18     7     8 2   
    19     7     9 1   
    20    14    13 1   
    21    13    12 ar  
    22    10     9 1   
    23    10    11 ar  
    24    12    11 ar  
    25     1    23 1   
    26     3    24 1   
    27     4    25 1   
    28     5    26 1   
    29     5    27 1   
    30     5    28 1   
    31     6    29 1   
    32     6    30 1   
    33     9    31 1   
    34    11    32 1   
    35    12    33 1   
    36    15    34 1   
    37    16    35 1   
    38    16    36 1   
    39    16    37 1   
    40    18    38 1   
    41    19    39 1   
    42    20    40 1   
    43    21    41 1   
    44    22    42 1   
@<TRIPOS>SUBSTRUCTURE
     1 68Y         1 TEMP              0 ****  ****    0 ROOT
