@<TRIPOS>MOLECULE
691
   24    25     1     0     0
SMALL
bcc


@<TRIPOS>ATOM
      1 O            0.0000     0.0000     0.0000 o          1 691      -0.630100
      2 C1           1.2130     0.0000     0.0000 c          1 691       0.556100
      3 C            1.9680     0.0000     1.3050 c3         1 691      -0.066100
      4 N            1.8870    -0.0080    -1.1680 ns         1 691      -0.032100
      5 C2           1.1900    -0.1120    -2.3770 ca         1 691      -0.226700
      6 C10         -0.0470     0.4870    -2.5200 ca         1 691      -0.038000
      7 C9          -0.7070     0.3520    -3.7540 ca         1 691      -0.136300
      8 C4          -0.0830    -0.3840    -4.7920 ca         1 691       0.359600
      9 N1           1.1150    -0.9410    -4.5920 nb         1 691      -0.553000
     10 C3           1.7450    -0.8190    -3.4500 ca         1 691       0.390200
     11 C8          -1.9680     0.9320    -3.9750 ca         1 691      -0.078000
     12 C7          -2.5750     0.7800    -5.1830 ca         1 691      -0.097000
     13 C6          -1.9640     0.0570    -6.2050 ca         1 691      -0.096000
     14 C5          -0.7440    -0.5180    -6.0260 ca         1 691      -0.139300
     15 H1           2.7420     0.7570     1.2740 hc         1 691       0.024367
     16 H2           2.4190    -0.9720     1.4610 hc         1 691       0.024367
     17 H3           1.2840     0.2160     2.1170 hc         1 691       0.024367
     18 H4           2.8840     0.0800    -1.1710 hn         1 691       0.167500
     19 H5          -0.3660     1.2460    -1.8150 ha         1 691       0.137000
     20 H6           2.7210    -1.2760    -3.3330 h4         1 691      -0.023900
     21 H7          -2.4530     1.4970    -3.1880 ha         1 691       0.111000
     22 H8          -3.5470     1.2280    -5.3530 ha         1 691       0.103000
     23 H9          -2.4680    -0.0490    -7.1580 ha         1 691       0.103000
     24 H10         -0.2830    -1.0770    -6.8320 ha         1 691       0.116000
@<TRIPOS>BOND
     1     1     2 2   
     2     2     3 1   
     3     2     4 1   
     4     3    15 1   
     5     3    16 1   
     6     3    17 1   
     7     4     5 1   
     8     4    18 1   
     9     5     6 ar  
    10     5    10 ar  
    11     6     7 ar  
    12     6    19 1   
    13     7     8 ar  
    14     7    11 ar  
    15     8     9 ar  
    16     8    14 ar  
    17     9    10 ar  
    18    10    20 1   
    19    11    12 ar  
    20    11    21 1   
    21    12    13 ar  
    22    12    22 1   
    23    13    14 ar  
    24    13    23 1   
    25    14    24 1   
@<TRIPOS>SUBSTRUCTURE
     1 691         1 TEMP              0 ****  ****    0 ROOT
