@<TRIPOS>MOLECULE
692
   27    28     1     0     0
SMALL
bcc


@<TRIPOS>ATOM
      1 C14          0.0000     0.0000     0.0000 c3         1 692       0.176100
      2 N13          1.4690     0.0000     0.0000 n7         1 692      -0.567200
      3 C12          1.9950     0.0000     1.3710 c3         1 692       0.185100
      4 C2           3.5010     0.0000     1.3310 ca         1 692      -0.084300
      5 C3           4.1980    -1.1750     1.5150 ca         1 692      -0.096000
      6 C4           5.5820    -1.1760     1.4770 ca         1 692      -0.100000
      7 C5           6.2740     0.0010     1.2580 ca         1 692      -0.100000
      8 C6           5.5900     1.1840     1.0730 ca         1 692      -0.088000
      9 C1           4.1940     1.1910     1.1030 ca         1 692       0.019000
     10 C7           3.4540     2.4540     0.9000 cc         1 692       0.072900
     11 C11          3.7010     3.6130     1.5420 cd         1 692      -0.130000
     12 C10          2.8770     4.6580     1.1830 cd         1 692      -0.131000
     13 C9           1.9600     4.3640     0.2560 cc         1 692      -0.019100
     14 S8           2.1190     2.6800    -0.2220 ss         1 692      -0.226800
     15 H14         -0.3610     0.8100     0.6230 h1         1 692       0.000033
     16 H14A        -0.3610     0.1340    -1.0120 h1         1 692       0.000033
     17 H12          1.6480    -0.8850     1.8910 h1         1 692       0.017200
     18 H12A         1.6480     0.8840     1.8910 h1         1 692       0.017200
     19 H3           3.6610    -2.1000     1.6870 ha         1 692       0.104000
     20 H4           6.1250    -2.1030     1.6220 ha         1 692       0.102000
     21 H5           7.3570    -0.0070     1.2330 ha         1 692       0.103000
     22 H6           6.1340     2.1050     0.9000 ha         1 692       0.111000
     23 H11          4.4870     3.7160     2.2810 ha         1 692       0.122000
     24 H10          2.9640     5.6450     1.6220 ha         1 692       0.116000
     25 H9           1.2320     5.0590    -0.1430 h4         1 692       0.145000
     26 H121        -0.3610    -0.9440     0.3900 h1         1 692       0.000033
     27 H13          1.8020    -0.8090    -0.4860 hn         1 692       0.251800
@<TRIPOS>BOND
     1     1     2 1   
     2     1    15 1   
     3     1    16 1   
     4     1    26 1   
     5     2     3 1   
     6     2    27 1   
     7     3     4 1   
     8     3    17 1   
     9     3    18 1   
    10     4     5 ar  
    11     4     9 ar  
    12     5     6 ar  
    13     5    19 1   
    14     6     7 ar  
    15     6    20 1   
    16     7     8 ar  
    17     7    21 1   
    18     8     9 ar  
    19     8    22 1   
    20     9    10 1   
    21    10    11 2   
    22    10    14 1   
    23    11    12 1   
    24    11    23 1   
    25    12    13 2   
    26    12    24 1   
    27    13    14 1   
    28    13    25 1   
@<TRIPOS>SUBSTRUCTURE
     1 692         1 TEMP              0 ****  ****    0 ROOT
