@<TRIPOS>MOLECULE
molecule
   52    55     1     0     0
SMALL
bcc


@<TRIPOS>ATOM
      1 C1           0.0000     0.0000     0.0000 ca         1 693       0.000100
      2 C2           1.4000     0.0000     0.0000 ca         1 693      -0.155000
      3 C3           2.0920     0.0000     1.1770 ca         1 693      -0.096000
      4 C4           1.4100     0.0000     2.3880 ca         1 693      -0.102000
      5 C5           0.0030     0.0010     2.4060 ca         1 693       0.006000
      6 C6          -0.7010     0.0060     1.2010 ca         1 693      -0.217000
      7 C7          -0.7370     0.0010    -1.2820 ce         1 693      -0.217200
      8 N1          -2.0700     0.0010    -1.2840 nz         1 693      -0.584600
      9 N2          -0.0690     0.0000    -2.4350 nv         1 693      -0.603100
     10 N3           1.8130    -0.0010     3.7080 na         1 693      -0.217600
     11 N4          -0.3800     0.0000     3.7070 nc         1 693      -0.322600
     12 C8           0.6800    -0.0000     4.4770 cc         1 693       0.194500
     13 C1'          0.6580    -0.0010     5.9550 cd         1 693      -0.074000
     14 C2'         -0.2810     0.7700     6.6420 cd         1 693      -0.019000
     15 C3'         -0.3030     0.7700     8.0220 cc         1 693      -0.031200
     16 CVX         -1.3200     1.6050     8.7550 c3         1 693      -0.083500
     17 CWX         -2.7070     1.1650     8.3650 c          1 693       0.898600
     18 OXX         -2.8570     0.2560     7.5660 o          1 693      -0.577300
     19 OYX         -3.6810     1.7180     8.8490 o          1 693      -0.577300
     20 C6X         -1.1310     3.0780     8.3860 c3         1 693      -0.164400
     21 C7X         -2.0640     3.9270     9.2100 c          1 693       0.873600
     22 O8X         -2.8460     3.3780    10.0550 o          1 693      -0.724800
     23 O9X         -2.0720     5.1940     9.0640 o          1 693      -0.724800
     24 C4'          0.6020     0.0070     8.7350 cc         1 693      -0.073000
     25 C5'          1.5450    -0.7690     8.0670 cd         1 693      -0.089200
     26 C6'          1.5730    -0.7810     6.6700 c          1 693       0.479100
     27 O6'          2.4890    -1.5340     6.0110 o          1 693      -0.614100
     28 C1B          2.5150    -1.5870     8.8360 ca         1 693      -0.061800
     29 C2B          3.8800    -1.3010     8.7700 ca         1 693       0.166900
     30 C3B          4.7770    -2.0640     9.4950 ca         1 693      -0.177000
     31 C4B          4.3250    -3.1140    10.2730 ca         1 693      -0.108000
     32 C5B          2.9740    -3.4030    10.3370 ca         1 693      -0.152000
     33 C6B          2.0680    -2.6470     9.6230 ca         1 693      -0.085000
     34 F2B          4.3210    -0.2760     8.0100 f          1 693      -0.132900
     35 HC2          1.9380    -0.0050    -0.9400 ha         1 693       0.114000
     36 HC3          3.1750    -0.0000     1.1670 ha         1 693       0.112000
     37 HC6         -1.7840     0.0060     1.2020 ha         1 693       0.104000
     38 HH11        -2.4040     0.8190    -0.8150 hn         1 693       0.376467
     39 HH12        -2.4020    -0.0020    -2.2280 hn         1 693       0.376467
     40 HH21        -0.5670     0.0000    -3.3030 hn         1 693       0.252700
     41 HH22         0.9320    -0.0010    -2.4330 hn         1 693       0.252700
     42 HN3          2.7560    -0.0010     4.0400 hn         1 693       0.311700
     43 HC2'        -0.9930     1.3730     6.0910 ha         1 693       0.176000
     44 H31B        -1.1880     1.4800     9.8230 hc         1 693       0.098700
     45 H42A        -0.1070     3.3710     8.5840 hc         1 693       0.067700
     46 H42B        -1.3500     3.2180     7.3340 hc         1 693       0.067700
     47 HC4'         0.5780     0.0140     9.8180 ha         1 693       0.143000
     48 H3B          5.8370    -1.8430     9.4470 ha         1 693       0.138000
     49 H4B          5.0320    -3.7110    10.8380 ha         1 693       0.126000
     50 H5B          2.6260    -4.2270    10.9480 ha         1 693       0.128000
     51 H6B          1.0100    -2.8760     9.6740 ha         1 693       0.145000
     52 H13         -2.4040    -0.8170    -0.8130 hn         1 693       0.376467
@<TRIPOS>BOND
     1     1     2 ar  
     2     1     6 ar  
     3     1     7 1   
     4     2     3 ar  
     5     2    35 1   
     6     3     4 ar  
     7     3    36 1   
     8     4     5 ar  
     9     4    10 2   
    10     5     6 ar  
    11     5    11 2   
    12     6    37 1   
    13     7     8 1   
    14     7     9 2   
    15     8    38 1   
    16     8    39 1   
    17     9    40 1   
    18     9    41 1   
    19    10    12 1   
    20    10    42 1   
    21    11    12 1   
    22    12    13 2   
    23    13    14 1   
    24    13    26 1   
    25    14    15 2   
    26    14    43 1   
    27    15    16 1   
    28    15    24 1   
    29    16    17 1   
    30    16    20 1   
    31    16    44 1   
    32    17    18 1   
    33    17    19 1   
    34    20    21 1   
    35    20    45 1   
    36    20    46 1   
    37    21    22 1   
    38    21    23 1   
    39    24    25 2   
    40    24    47 1   
    41    25    26 1   
    42    25    28 1   
    43    26    27 2   
    44    28    29 ar  
    45    28    33 ar  
    46    29    30 ar  
    47    29    34 1   
    48    30    31 ar  
    49    30    48 1   
    50    31    32 ar  
    51    31    49 1   
    52    32    33 ar  
    53    32    50 1   
    54    33    51 1   
    55    52     8 1   
@<TRIPOS>SUBSTRUCTURE
     1 693         1 TEMP              0 ****  ****    0 ROOT
