@<TRIPOS>MOLECULE
molecule
   28    29     1     0     0
SMALL
bcc


@<TRIPOS>ATOM
      1 C1           0.0000     0.0000     0.0000 ca         1 694      -0.113000
      2 C2           1.3780     0.0000     0.0000 ca         1 694      -0.158000
      3 C3           2.0740     0.0000     1.2020 ca         1 694       0.061100
      4 C4           1.3850     0.0060     2.4080 ca         1 694      -0.158000
      5 C5           0.0070     0.0130     2.4170 ca         1 694      -0.113000
      6 C6          -0.6970     0.0130     1.2100 ca         1 694       0.054000
      7 C7          -2.1740     0.0210     1.2150 cc         1 694      -0.062100
      8 C8          -3.0400     0.7110     0.3850 cd         1 694      -0.019900
      9 C9          -4.3920     0.5650     0.5730 cd         1 694       0.050100
     10 C10         -4.8320    -0.2720     1.5980 cc         1 694       0.065300
     11 S1          -3.2940    -0.8600     2.2900 ss         1 694      -0.192800
     12 C11         -6.1540    -0.5800     1.9870 c          1 694       0.890200
     13 O1          -6.3770    -1.4290     3.0130 o          1 694      -0.806300
     14 O2          -7.0950    -0.0800     1.3970 o          1 694      -0.806300
     15 O3          -5.2800     1.2240    -0.2150 os         1 694      -0.254900
     16 C12         -5.5570     0.3700    -1.3260 c3         1 694       0.020400
     17 C13         -6.5420     1.0460    -2.2460 c          1 694       0.907600
     18 O4          -6.9510     0.4260    -3.3630 o          1 694      -0.854300
     19 O5          -6.9620     2.1470    -1.9770 o          1 694      -0.854300
     20 Br1         -2.3760     1.8370    -0.9810 br         1 694      -0.118100
     21 O6           3.4320    -0.0070     1.1990 oh         1 694      -0.535100
     22 H1          -0.5420    -0.0000    -0.9380 ha         1 694       0.150500
     23 H2           1.9190    -0.0070    -0.9380 ha         1 694       0.123000
     24 H4           1.9310     0.0060     3.3430 ha         1 694       0.123000
     25 H5          -0.5300     0.0210     3.3580 ha         1 694       0.150500
     26 H121        -4.6390     0.1690    -1.8650 h1         1 694       0.025200
     27 H122        -5.9780    -0.5620    -0.9690 h1         1 694       0.025200
     28 HO6          3.7510     0.8810     1.1940 ho         1 694       0.401000
@<TRIPOS>BOND
     1     1     2 ar  
     2     1     6 ar  
     3     1    22 1   
     4     2     3 ar  
     5     2    23 1   
     6     3     4 ar  
     7     3    21 1   
     8     4     5 ar  
     9     4    24 1   
    10     5     6 ar  
    11     5    25 1   
    12     6     7 1   
    13     7     8 2   
    14     7    11 1   
    15     8     9 1   
    16     8    20 1   
    17     9    10 2   
    18     9    15 1   
    19    10    11 1   
    20    10    12 1   
    21    12    13 1   
    22    12    14 1   
    23    15    16 1   
    24    16    17 1   
    25    16    26 1   
    26    16    27 1   
    27    17    18 1   
    28    17    19 1   
    29    21    28 1   
@<TRIPOS>SUBSTRUCTURE
     1 694         1 TEMP              0 ****  ****    0 ROOT
