@<TRIPOS>MOLECULE
694
   28    29     1     0     0
SMALL
bcc


@<TRIPOS>ATOM
      1 C1          0.3170   -0.1430    0.0660 ca        1 694     -0.094000
      2 C2          1.6880   -0.1080    0.3020 ca        1 694     -0.188500
      3 C3          2.1560    0.1340    1.6000 ca        1 694      0.081100
      4 C4          1.2620    0.3400    2.6580 ca        1 694     -0.188500
      5 C5         -0.1060    0.3050    2.4040 ca        1 694     -0.094000
      6 C6         -0.5990    0.0660    1.1100 ca        1 694      0.028000
      7 C7         -2.0210    0.0100    0.8730 cc        1 694     -0.150100
      8 C8         -2.7490    0.6940   -0.0960 cd        1 694     -0.046900
      9 C9         -4.1570    0.3590   -0.0420 cd        1 694      0.138100
     10 C10        -4.4210   -0.5560    0.9670 cc        1 694     -0.171700
     11 S1         -3.0240   -0.9590    1.7950 ss        1 694      0.023200
     12 C11        -5.7090   -1.2270    1.4030 c         1 694      0.939200
     13 O1         -6.2090   -0.8670    2.5060 o         1 694     -0.818300
     14 O2         -6.1650   -2.1590    0.6880 o         1 694     -0.818300
     15 O3         -4.9770    0.9700   -0.9430 os        1 694     -0.287900
     16 C12        -6.3770    0.6460   -0.8690 c3        1 694      0.005400
     17 C13        -7.0800    1.5080   -1.9480 c         1 694      0.917600
     18 O4         -7.1190    1.0760   -3.1340 o         1 694     -0.851300
     19 O5         -7.6350    2.5830   -1.5780 o         1 694     -0.851300
     20 BR1        -2.0010    1.9180   -1.2760 br        1 694     -0.104100
     21 O6          3.5060    0.1780    1.9030 oh        1 694     -0.520100
     22 H1         -0.0600   -0.3380   -0.9500 ha        1 694      0.147500
     23 H2          2.3960   -0.2680   -0.5210 ha        1 694      0.122500
     24 H4          1.6470    0.5290    3.6690 ha        1 694      0.122500
     25 H5         -0.8190    0.4720    3.2270 ha        1 694      0.147500
     26 H121       -6.7570    0.8930    0.1540 h1        1 694      0.053700
     27 H122       -6.5110   -0.4470   -1.0730 h1        1 694      0.053700
     28 HO6         3.9880    0.0490    1.0760 ho        1 694      0.402000
@<TRIPOS>BOND
     1    1    2 ar  
     2    1    6 ar  
     3    1   22 1   
     4    2    3 ar  
     5    2   23 1   
     6    3    4 ar  
     7    3   21 1   
     8    4    5 ar  
     9    4   24 1   
    10    5    6 ar  
    11    5   25 1   
    12    6    7 1   
    13    7    8 2   
    14    7   11 1   
    15    8    9 1   
    16    8   20 1   
    17    9   10 2   
    18    9   15 1   
    19   10   11 1   
    20   10   12 1   
    21   12   13 1   
    22   12   14 1   
    23   15   16 1   
    24   16   17 1   
    25   16   26 1   
    26   16   27 1   
    27   17   18 1   
    28   17   19 1   
    29   21   28 1   
@<TRIPOS>SUBSTRUCTURE
     1 694         1 TEMP              0 ****  ****    0 ROOT
