@<TRIPOS>MOLECULE
molecule
   39    40     1     0     0
SMALL
bcc


@<TRIPOS>ATOM
      1 C1           0.0000     0.0000     0.0000 ca         1 695      -0.056300
      2 N1          -4.9920    -1.5790     2.5210 n7         1 695      -0.918100
      3 O1          -4.9350     0.5470     1.2680 o          1 695      -0.634800
      4 S1          -4.5020     0.0020     2.5080 sy         1 695       1.420200
      5 C2           1.3610     0.0000     0.0000 ca         1 695      -0.127000
      6 N2          -1.8580     1.4500    -2.9410 ns         1 695      -0.594900
      7 O2          -4.8700     0.5490     3.7670 o          1 695      -0.634800
      8 C3           2.0790     0.0000     1.1950 ca         1 695      -0.103000
      9 O3          -2.0600     3.6590    -2.8930 o          1 695      -0.604100
     10 C4           1.4390     0.0010     2.3960 ca         1 695      -0.129000
     11 C5           0.0340     0.0020     2.4360 ca         1 695       0.007000
     12 C6          -0.6950     0.0010     1.2210 ca         1 695      -0.059000
     13 C7          -2.1000     0.0020     1.2610 ca         1 695       0.006000
     14 C8          -2.7400     0.0020     2.4620 ca         1 695      -0.308500
     15 C9          -2.0220     0.0030     3.6570 ca         1 695      -0.054000
     16 C10         -0.6610     0.0020     3.6570 ca         1 695      -0.130000
     17 C13         -4.6680    -2.4360     3.6640 c3         1 695       0.223100
     18 C16         -0.7570     0.0060    -1.3030 c3         1 695      -0.059100
     19 C17         -1.1220     1.4440    -1.6740 c3         1 695       0.115000
     20 C19         -2.2850     2.6150    -3.4680 c          1 695       0.657100
     21 C20         -3.0420     2.6210    -4.7700 c3         1 695      -0.171100
     22 HN1         -5.5460    -1.9370     1.7680 hn         1 695       0.454800
     23 H2           1.8950    -0.0010    -0.9430 ha         1 695       0.135000
     24 HN2         -2.0290     0.5900    -3.4250 hn         1 695       0.309500
     25 H3           3.1620    -0.0000     1.1670 ha         1 695       0.134000
     26 H4           2.0100     0.0010     3.3170 ha         1 695       0.138000
     27 H7          -2.6680    -0.1130     0.3450 ha         1 695       0.152000
     28 H9          -2.5560     0.0080     4.6000 ha         1 695       0.149000
     29 H10         -0.1170     0.0030     4.5940 ha         1 695       0.139000
     30 H13         -5.4170    -3.2130     3.7560 h1         1 695       0.042700
     31 H13A        -3.6950    -2.8880     3.5110 h1         1 695       0.042700
     32 H13B        -4.6510    -1.8410     4.5690 h1         1 695       0.042700
     33 H16         -0.1380    -0.4220    -2.0820 hc         1 695       0.053700
     34 H16A        -1.6620    -0.5800    -1.1980 hc         1 695       0.053700
     35 H17         -1.7420     1.8720    -0.8950 h1         1 695       0.061700
     36 H17A        -0.2180     2.0310    -1.7800 h1         1 695       0.061700
     37 H20         -3.9420     2.0260    -4.6670 hc         1 695       0.060367
     38 H20A        -2.4200     2.2020    -5.5520 hc         1 695       0.060367
     39 H20B        -3.3090     3.6380    -5.0280 hc         1 695       0.060367
@<TRIPOS>BOND
     1     1     5 ar  
     2     1    12 ar  
     3     1    18 1   
     4     2     4 1   
     5     2    17 1   
     6     3     4 2   
     7     4     7 2   
     8     4    14 1   
     9     5     8 ar  
    10     6    19 1   
    11     6    20 1   
    12     8    10 ar  
    13     9    20 2   
    14    10    11 ar  
    15    11    12 ar  
    16    11    16 ar  
    17    12    13 ar  
    18    13    14 ar  
    19    14    15 ar  
    20    15    16 ar  
    21    18    19 1   
    22    20    21 1   
    23     2    22 1   
    24     5    23 1   
    25     6    24 1   
    26     8    25 1   
    27    10    26 1   
    28    13    27 1   
    29    15    28 1   
    30    16    29 1   
    31    17    30 1   
    32    17    31 1   
    33    17    32 1   
    34    18    33 1   
    35    18    34 1   
    36    19    35 1   
    37    19    36 1   
    38    21    37 1   
    39    21    38 1   
    40    21    39 1   
@<TRIPOS>SUBSTRUCTURE
     1 695         1 TEMP              0 ****  ****    0 ROOT
