@<TRIPOS>MOLECULE
695
   39    40     1     0     0
SMALL
bcc


@<TRIPOS>ATOM
      1 C1           0.0000     0.0000     0.0000 ca         1 695      -0.059300
      2 N1          -4.9920    -1.5790     2.5210 n7         1 695      -0.583100
      3 O1          -4.9350     0.5470     1.2680 o          1 695      -0.586300
      4 S1          -4.5020     0.0020     2.5080 sy         1 695       1.039200
      5 C2           1.3610     0.0000     0.0000 ca         1 695      -0.101000
      6 N2          -1.8580     1.4500    -2.9410 ns         1 695      -0.208900
      7 O2          -4.8700     0.5490     3.7670 o          1 695      -0.586300
      8 C3           2.0790     0.0000     1.1950 ca         1 695      -0.075000
      9 O3          -2.0600     3.6590    -2.8930 o          1 695      -0.643100
     10 C4           1.4390     0.0010     2.3960 ca         1 695      -0.101000
     11 C5           0.0340     0.0020     2.4360 ca         1 695       0.005000
     12 C6          -0.6950     0.0010     1.2210 ca         1 695      -0.065000
     13 C7          -2.1000     0.0020     1.2610 ca         1 695       0.033000
     14 C8          -2.7400     0.0020     2.4620 ca         1 695      -0.152500
     15 C9          -2.0220     0.0030     3.6570 ca         1 695      -0.023000
     16 C10         -0.6610     0.0020     3.6570 ca         1 695      -0.109000
     17 C13         -4.6680    -2.4360     3.6640 c3         1 695       0.262100
     18 C16         -0.7570     0.0060    -1.3030 c3         1 695       0.010900
     19 C17         -1.1220     1.4440    -1.6740 c3         1 695       0.050000
     20 C19         -2.2850     2.6150    -3.4680 c          1 695       0.572100
     21 C20         -3.0420     2.6210    -4.7700 c3         1 695      -0.066100
     22 HN1         -5.5460    -1.9370     1.7680 hn         1 695       0.346800
     23 H2           1.8950    -0.0010    -0.9430 ha         1 695       0.108000
     24 HN2         -2.0290     0.5900    -3.4250 hn         1 695       0.171500
     25 H3           3.1620    -0.0000     1.1670 ha         1 695       0.104000
     26 H4           2.0100     0.0010     3.3170 ha         1 695       0.110000
     27 H7          -2.6680    -0.1130     0.3450 ha         1 695       0.127000
     28 H9          -2.5560     0.0080     4.6000 ha         1 695       0.123000
     29 H10         -0.1170     0.0030     4.5940 ha         1 695       0.112000
     30 H13         -5.4170    -3.2130     3.7560 h1         1 695       0.001700
     31 H13A        -3.6950    -2.8880     3.5110 h1         1 695       0.001700
     32 H13B        -4.6510    -1.8410     4.5690 h1         1 695       0.001700
     33 H16         -0.1380    -0.4220    -2.0820 hc         1 695       0.022700
     34 H16A        -1.6620    -0.5800    -1.1980 hc         1 695       0.022700
     35 H17         -1.7420     1.8720    -0.8950 h1         1 695       0.033700
     36 H17A        -0.2180     2.0310    -1.7800 h1         1 695       0.033700
     37 H20         -3.9420     2.0260    -4.6670 hc         1 695       0.021700
     38 H20A        -2.4200     2.2020    -5.5520 hc         1 695       0.021700
     39 H20B        -3.3090     3.6380    -5.0280 hc         1 695       0.021700
@<TRIPOS>BOND
     1     1     5 ar  
     2     1    12 ar  
     3     1    18 1   
     4     2     4 1   
     5     2    17 1   
     6     2    22 1   
     7     3     4 2   
     8     4     7 2   
     9     4    14 1   
    10     5     8 ar  
    11     5    23 1   
    12     6    19 1   
    13     6    20 1   
    14     6    24 1   
    15     8    10 ar  
    16     8    25 1   
    17     9    20 2   
    18    10    11 ar  
    19    10    26 1   
    20    11    12 ar  
    21    11    16 ar  
    22    12    13 ar  
    23    13    14 ar  
    24    13    27 1   
    25    14    15 ar  
    26    15    16 ar  
    27    15    28 1   
    28    16    29 1   
    29    17    30 1   
    30    17    31 1   
    31    17    32 1   
    32    18    19 1   
    33    18    33 1   
    34    18    34 1   
    35    19    35 1   
    36    19    36 1   
    37    20    21 1   
    38    21    37 1   
    39    21    38 1   
    40    21    39 1   
@<TRIPOS>SUBSTRUCTURE
     1 695         1 TEMP              0 ****  ****    0 ROOT
