@<TRIPOS>MOLECULE
molecule
   43    46     1     0     0
SMALL
bcc


@<TRIPOS>ATOM
      1 C1           0.0000     0.0000     0.0000 ca         1 696      -0.076900
      2 C2           1.4020     0.0000     0.0000 ca         1 696      -0.072000
      3 C3           2.0980     0.0000     1.1730 ca         1 696      -0.143000
      4 C4           1.4210    -0.0010     2.3910 ca         1 696       0.080000
      5 C5           0.0110     0.0000     2.4050 ca         1 696      -0.039000
      6 C6          -0.6970     0.0050     1.2030 ca         1 696      -0.232000
      7 C7          -0.7370     0.0010    -1.2800 ce         1 696       0.111800
      8 N1          -2.0700    -0.0000    -1.2810 nz         1 696      -0.679600
      9 N2          -0.0710     0.0010    -2.4340 nv         1 696      -0.515100
     10 N3           1.8450    -0.0010     3.7000 na         1 696      -0.162600
     11 CN4         -0.3850    -0.0010     3.8130 cc         1 696      -0.247000
     12 C8           0.7580    -0.0020     4.5440 cc         1 696       0.059900
     13 C1'          0.8250    -0.0020     6.0200 cd         1 696      -0.061000
     14 C2'         -0.0670     0.7730     6.7630 cd         1 696      -0.126000
     15 C3'         -0.0050     0.7730     8.1420 cc         1 696      -0.071000
     16 C4'          0.9390     0.0070     8.7980 cc         1 696      -0.113000
     17 C5'          1.8370    -0.7730     8.0740 cd         1 696      -0.018200
     18 C6'          1.7790    -0.7840     6.6790 c          1 696       0.438100
     19 O6'          2.6510    -1.5420     5.9650 o          1 696      -0.570100
     20 C1B          2.8500    -1.5940     8.7820 ca         1 696      -0.069800
     21 C2B          3.6490    -1.0190     9.7690 ca         1 696      -0.092500
     22 C3B          4.5890    -1.7870    10.4260 ca         1 696      -0.131000
     23 C4B          4.7390    -3.1250    10.1050 ca         1 696      -0.103000
     24 C5B          3.9500    -3.7000     9.1260 ca         1 696      -0.131000
     25 C6B          3.0020    -2.9420     8.4670 ca         1 696      -0.092500
     26 H2           2.1850    -0.0010    -0.7480 ha         1 696       0.157000
     27 H3           3.1810     0.0000     1.1640 ha         1 696       0.156000
     28 H6          -1.7410     0.0190     1.4890 ha         1 696       0.144000
     29 HH11        -2.4040    -0.8140    -0.8040 hn         1 696       0.444800
     30 HH12        -2.4040     0.8200    -0.8160 hn         1 696       0.444800
     31 HH21        -0.5710     0.0010    -3.3010 hn         1 696       0.303700
     32 HH22         0.9300     0.0010    -2.4340 hn         1 696       0.303700
     33 HN3          2.8010    -0.0010     3.9940 hn         1 696       0.335700
     34 HN4         -1.3970    -0.0010     4.1980 ha         1 696       0.172000
     35 H2'         -0.8100     1.3760     6.2560 ha         1 696       0.146000
     36 H3'         -0.7000     1.3770     8.7120 ha         1 696       0.151000
     37 H4'          0.9820     0.0150     9.8810 ha         1 696       0.157000
     38 H2B          3.5330     0.0280    10.0210 ha         1 696       0.137500
     39 H3B          5.2110    -1.3420    11.1930 ha         1 696       0.139000
     40 H4B          5.4800    -3.7240    10.6210 ha         1 696       0.138000
     41 H5B          4.0700    -4.7480     8.8810 ha         1 696       0.139000
     42 H6B          2.3840    -3.3930     7.7000 ha         1 696       0.137500
     43 H13         -2.4030     0.0020    -2.2250 hn         1 696       0.444800
@<TRIPOS>BOND
     1     1     2 ar
     2     1     6 ar
     3     1     7 1
     4     2     3 ar
     5     2    26 1
     6     3     4 ar
     7     3    27 1
     8     4     5 ar
     9     4    10 2
    10     5     6 ar
    11     5    11 2
    12     6    28 1
    13     7     8 1
    14     7     9 2
    15     8    29 1
    16     8    30 1
    17     9    31 1
    18     9    32 1
    19    10    12 1
    20    10    33 1
    21    11    12 1
    22    11    34 1
    23    12    13 2
    24    13    14 1
    25    13    18 1
    26    14    15 2
    27    14    35 1
    28    15    16 1
    29    15    36 1
    30    16    17 2
    31    16    37 1
    32    17    18 1
    33    17    20 1
    34    18    19 2
    35    20    21 ar
    36    20    25 ar
    37    21    22 ar
    38    21    38 1
    39    22    23 ar
    40    22    39 1
    41    23    24 ar
    42    23    40 1
    43    24    25 ar
    44    24    41 1
    45    25    42 1
    46    43     8 1
@<TRIPOS>SUBSTRUCTURE
     1 696         1 TEMP              0 ****  ****    0 ROOT
