@<TRIPOS>MOLECULE
696
   42    45     1     0     0
SMALL
bcc


@<TRIPOS>ATOM
      1 C1         -0.0590    0.0580   -0.0470 ca        1 696     -0.305900
      2 C2          1.1470   -0.6830   -0.0430 ca        1 696     -0.107000
      3 C3          1.7650   -1.0460    1.1390 ca        1 696     -0.147000
      4 C4          1.1770   -0.6530    2.3520 ca        1 696      0.052000
      5 C5         -0.0750    0.1210    2.3620 ca        1 696     -0.040000
      6 C6         -0.6690    0.4570    1.1620 ca        1 696     -0.086000
      7 C7         -0.6840    0.4140   -1.3180 ce        1 696      0.529400
      8 N1         -2.0420    0.4480   -1.4110 nh        1 696     -0.505100
      9 N2          0.0980    0.7070   -2.3950 nh        1 696     -0.489200
     10 N3          1.5590   -0.8550    3.6550 na        1 696     -0.203600
     11 CN4        -0.3930    0.3560    3.7320 cc        1 696     -0.322000
     12 C8          0.6190   -0.2490    4.5260 cc        1 696      0.162900
     13 C1'         0.7380   -0.2820    5.9440 cd        1 696     -0.333200
     14 C2'        -0.2580    0.3610    6.7150 cd        1 696     -0.012000
     15 C3'        -0.2080    0.3840    8.0850 cc        1 696     -0.269000
     16 C4'         0.8690   -0.2400    8.7540 cc        1 696     -0.036000
     17 C5'         1.8700   -0.8840    8.0690 cd        1 696     -0.194400
     18 C6'         1.8430   -0.9540    6.6060 c         1 696      0.593500
     19 O6'         2.7410   -1.5690    5.9650 o         1 696     -0.721100
     20 C1B         2.9700   -1.5000    8.8060 ca        1 696     -0.000800
     21 C2B         3.4960   -0.8660    9.9440 ca        1 696     -0.122000
     22 C3B         4.5240   -1.4560   10.6750 ca        1 696     -0.140000
     23 C4B         5.0470   -2.6870   10.2820 ca        1 696     -0.149000
     24 C5B         4.5390   -3.3210    9.1480 ca        1 696     -0.140000
     25 C6B         3.5110   -2.7340    8.4140 ca        1 696     -0.122000
     26 H2          1.5940   -1.0220   -0.9890 ha        1 696      0.117000
     27 H3          2.6940   -1.6350    1.1300 ha        1 696      0.149000
     28 H6         -1.5850    1.0660    1.1700 ha        1 696      0.125000
     29 HH11       -2.5750    0.2060   -0.6040 hn        1 696      0.310200
     30 HH12       -2.5220    0.7550   -2.2230 hn        1 696      0.310200
     31 HH21        1.0870    0.6980   -2.2750 hn        1 696      0.310200
     32 HH22       -0.2700    0.8920   -3.2970 hn        1 696      0.310200
     33 HN3         2.3660   -1.3430    3.9870 hn        1 696      0.353700
     34 HN4        -1.2520    0.9020    4.1030 ha        1 696      0.157000
     35 H2'        -1.0950    0.8540    6.1950 ha        1 696      0.104000
     36 H3'        -0.9910    0.8800    8.6720 ha        1 696      0.116000
     37 H4'         0.8870   -0.2060    9.8560 ha        1 696      0.114000
     38 H2B         3.0980    0.1110   10.2540 ha        1 696      0.139500
     39 H3B         4.9250   -0.9470   11.5630 ha        1 696      0.118000
     40 H4B         5.8580   -3.1520   10.8590 ha        1 696      0.117000
     41 H5B         4.9540   -4.2880    8.8290 ha        1 696      0.118000
     42 H6B         3.1270   -3.2240    7.5050 ha        1 696      0.139500
@<TRIPOS>BOND
     1    1    2 ar  
     2    1    6 ar  
     3    1    7 1   
     4    2    3 ar  
     5    2   26 1   
     6    3    4 ar  
     7    3   27 1   
     8    4    5 ar  
     9    4   10 2   
    10    5    6 ar  
    11    5   11 2   
    12    6   28 1   
    13    7    8 2   
    14    7    9 1   
    15    8   29 1   
    16    8   30 1   
    17    9   31 1   
    18    9   32 1   
    19   10   12 1   
    20   10   33 1   
    21   11   12 1   
    22   11   34 1   
    23   12   13 2   
    24   13   14 1   
    25   13   18 1   
    26   14   15 2   
    27   14   35 1   
    28   15   16 1   
    29   15   36 1   
    30   16   17 2   
    31   16   37 1   
    32   17   18 1   
    33   17   20 1   
    34   18   19 2   
    35   20   21 ar  
    36   20   25 ar  
    37   21   22 ar  
    38   21   38 1   
    39   22   23 ar  
    40   22   39 1   
    41   23   24 ar  
    42   23   40 1   
    43   24   25 ar  
    44   24   41 1   
    45   25   42 1   
@<TRIPOS>SUBSTRUCTURE
     1 696         1 TEMP              0 ****  ****    0 ROOT
