@<TRIPOS>MOLECULE
697
   28    30     1     0     0
SMALL
bcc


@<TRIPOS>ATOM
      1 C1         -0.0200    0.0630    0.0290 ca        1 697      0.144100
      2 C2          1.3820    0.1450   -0.0470 ca        1 697     -0.190500
      3 C3          2.1240    0.1430    1.1260 ca        1 697     -0.060000
      4 C4          1.4880    0.0600    2.3770 ca        1 697     -0.090800
      5 C5          0.0880   -0.0220    2.4370 ca        1 697     -0.060000
      6 C6         -0.6680   -0.0210    1.2700 ca        1 697     -0.190500
      7 O11        -0.6980    0.0700   -1.1650 oh        1 697     -0.492100
      8 C12         2.2810    0.0590    3.5810 cc        1 697      0.124900
      9 C13         3.6410    0.1270    3.8090 cd        1 697     -0.184200
     10 C14         3.8340    0.0840    5.2440 ca        1 697     -0.062800
     11 C15         2.5230   -0.0110    5.8080 ca        1 697      0.061100
     12 O16         1.5610   -0.0270    4.8000 os        1 697     -0.191200
     13 C17         4.9420    0.1150    6.0820 ca        1 697     -0.154000
     14 C18         4.7130    0.0500    7.4630 ca        1 697      0.106100
     15 C19         3.4190   -0.0440    8.0170 ca        1 697     -0.103000
     16 C20         2.2960   -0.0760    7.1840 ca        1 697      0.026000
     17 O23         5.7420    0.0730    8.3800 oh        1 697     -0.494100
     18 C7          0.9890   -0.1700    7.7280 cg        1 697      0.242800
     19 N27        -0.0830   -0.2460    8.1730 n1        1 697     -0.351800
     20 H2          1.8690    0.2100   -1.0300 ha        1 697      0.148500
     21 H3          3.2220    0.2070    1.0750 ha        1 697      0.147500
     22 H5         -0.4120   -0.0870    3.4170 ha        1 697      0.147500
     23 H6         -1.7650   -0.0850    1.3200 ha        1 697      0.148500
     24 H11        -1.6460    0.0090   -0.9730 ho        1 697      0.424000
     25 H13         4.4330    0.1990    3.0680 ha        1 697      0.168000
     26 H17         5.9600    0.1870    5.6760 ha        1 697      0.147000
     27 H19         3.3080   -0.0910    9.1110 ha        1 697      0.167000
     28 H23         6.5760    0.1390    7.8920 ho        1 697      0.422000
@<TRIPOS>BOND
     1    1    2 ar
     2    1    6 ar
     3    1    7 1
     4    2    3 ar
     5    2   20 1
     6    3    4 ar
     7    3   21 1
     8    4    5 ar
     9    4    8 1
    10    5    6 ar
    11    5   22 1
    12    6   23 1
    13    7   24 1
    14    8    9 2
    15    8   12 1
    16    9   10 1
    17    9   25 1
    18   10   11 ar
    19   10   13 ar
    20   11   12 1
    21   11   16 ar
    22   13   14 ar
    23   13   26 1
    24   14   15 ar
    25   14   17 1
    26   15   16 ar
    27   15   27 1
    28   16   18 1
    29   17   28 1
    30   18   19 3
@<TRIPOS>SUBSTRUCTURE
     1 697         1 TEMP              0 ****  ****    0 ROOT
