@<TRIPOS>MOLECULE
698
   60    63     1     0     0
SMALL
bcc


@<TRIPOS>ATOM
      1 O24          0.0000     0.0000     0.0000 o          1 698      -0.629000
      2 C22          1.2230     0.0000     0.0000 c2         1 698       0.432000
      3 O1           1.9850    -0.0020    -1.1200 o          1 698      -0.629000
      4 C15          2.0850     0.0000     1.2300 c3         1 698      -0.132000
      5 C14          1.3450     0.0580     2.5730 c3         1 698       0.030000
      6 C20         -0.0290    -0.5890     2.5460 c2         1 698      -0.147000
      7 N1          -1.1350     0.0400     2.2300 n2         1 698       0.072000
      8 C28         -2.1880    -0.8500     2.3090 c2         1 698      -0.085000
      9 C27         -1.8610    -2.1370     2.6840 c2         1 698      -0.427000
     10 S1          -0.1700    -2.2480     2.9480 ss         1 698       0.231000
     11 C16          2.9830     1.2330     1.2610 c3         1 698      -0.128000
     12 C17          2.2260     2.2810     2.1110 c3         1 698      -0.074000
     13 C33          3.2580     3.1380     2.8490 c3         1 698      -0.093000
     14 C37          4.2740     3.8110     1.9130 c3         1 698      -0.049000
     15 C40          5.0400     2.8020     1.0580 c3         1 698      -0.168000
     16 C44          3.5530     4.8140     1.0080 DU         1 698      -0.165000
     17 C34          1.3990     3.1550     1.2080 c2         1 698       0.348000
     18 O35          0.5090     2.7590     0.4710 o          1 698      -0.450000
     19 O36          1.7770     4.4510     1.3200 os         1 698      -0.700000
     20 N12          1.3330     1.4770     2.9770 n          1 698       0.082000
     21 C11          0.7390     1.8490     4.1900 c2         1 698       0.287000
     22 O13          0.2050     1.0680     4.9800 o          1 698      -0.472000
     23 C5           0.6960     3.2650     4.5750 ca         1 698      -0.073000
     24 C4          -0.3880     4.0510     4.1980 ca         1 698      -0.045500
     25 C3          -0.4290     5.3960     4.5650 ca         1 698      -0.115500
     26 C6           1.7410     3.8120     5.3160 ca         1 698      -0.045500
     27 C1           1.6990     5.1570     5.6820 ca         1 698      -0.115500
     28 C2           0.6150     5.9490     5.3070 ca         1 698      -0.079000
     29 C51          0.5710     7.3870     5.6990 c3         1 698      -0.001000
     30 C9          -0.6810     7.6950     6.5780 c3         1 698      -0.117667
     31 C8           0.5060     8.3140     4.4450 c3         1 698      -0.117667
     32 C7           1.7970     7.8960     6.5280 c3         1 698      -0.117667
     33 H15          2.7120    -0.8840     1.2190 hc         1 698       0.051000
     34 H14          1.9460    -0.4790     3.2970 h1         1 698       0.031000
     35 H161         3.1350     1.6080     0.2560 hc         1 698       0.083500
     36 H162         3.9310     0.9920     1.7250 hc         1 698       0.083500
     37 H28         -3.2070    -0.5560     2.0910 h4         1 698       0.106000
     38 H27         -2.5650    -2.9530     2.7930 h4         1 698       0.128000
     39 H331         3.7960     2.5090     3.5480 hc         1 698       0.043500
     40 H332         2.7360     3.9080     3.4050 hc         1 698       0.043500
     41 H37          4.9880     4.3540     2.5210 hc         1 698       0.007000
     42 H401         5.3550     1.9700     1.6760 hc         1 698       0.046333
     43 H402         5.9110     3.2810     0.6270 hc         1 698       0.046333
     44 H403         4.3980     2.4390     0.2650 hc         1 698       0.046333
     45 H441         4.2840     5.4130     0.4790 ha         1 698       0.067000
     46 H442         2.9390     4.2790     0.2940 ha         1 698       0.067000
     47 H443         2.9260     5.4590     1.6120 ha         1 698       0.067000
     48 H4          -1.1980     3.6200     3.6220 ha         1 698       0.113000
     49 H6           2.5830     3.1950     5.6070 ha         1 698       0.113000
     50 H3          -1.2710     6.0120     4.2740 ha         1 698       0.094500
     51 HA           2.5100     5.5860     6.2580 ha         1 698       0.094500
     52 H9C1        -1.5770     7.6000     5.9760 hc         1 698       0.039889
     53 H9C2        -0.6110     8.7050     6.9640 hc         1 698       0.039889
     54 H9C3        -0.7240     6.9950     7.4030 hc         1 698       0.039889
     55 H8C1        -0.4010     8.1070     3.8900 hc         1 698       0.039889
     56 H8C2         0.5070     9.3500     4.7610 hc         1 698       0.039889
     57 H8C3         1.3660     8.1280     3.8130 hc         1 698       0.039889
     58 H7C1         1.6640     8.9450     6.7640 hc         1 698       0.039889
     59 H7C2         2.7030     7.7690     5.9480 hc         1 698       0.039889
     60 H7C3         1.8740     7.3260     7.4460 hc         1 698       0.039889
@<TRIPOS>BOND
     1     1     2 1   
     2     2     3 1   
     3     2     4 1   
     4     4     5 1   
     5     4    11 1   
     6     4    33 1   
     7     5     6 1   
     8     5    20 1   
     9     5    34 1   
    10     6     7 1   
    11     6    10 1   
    12     7     8 1   
    13     8     9 1   
    14     8    37 1   
    15     9    10 1   
    16     9    38 1   
    17    11    12 1   
    18    11    35 1   
    19    11    36 1   
    20    12    13 1   
    21    12    17 1   
    22    12    20 1   
    23    13    14 1   
    24    13    39 1   
    25    13    40 1   
    26    14    15 1   
    27    14    16 1   
    28    14    41 1   
    29    15    42 1   
    30    15    43 1   
    31    15    44 1   
    32    16    19 1   
    33    16    45 1   
    34    16    46 1   
    35    16    47 1   
    36    17    18 1   
    37    17    19 1   
    38    20    21 1   
    39    21    22 1   
    40    21    23 1   
    41    23    24 1   
    42    23    26 1   
    43    24    25 1   
    44    24    48 1   
    45    25    28 1   
    46    25    50 1   
    47    26    27 1   
    48    26    49 1   
    49    27    28 1   
    50    27    51 1   
    51    28    29 1   
    52    29    30 1   
    53    29    31 1   
    54    29    32 1   
    55    30    52 1   
    56    30    53 1   
    57    30    54 1   
    58    31    55 1   
    59    31    56 1   
    60    31    57 1   
    61    32    58 1   
    62    32    59 1   
    63    32    60 1   
@<TRIPOS>SUBSTRUCTURE
     1 698         1 TEMP              0 ****  ****    0 ROOT
