@<TRIPOS>MOLECULE
molecule
   52    54     1     0     0
SMALL
bcc


@<TRIPOS>ATOM
      1 F54          0.0000     0.0000     0.0000 f          1 699      -0.250967
      2 C51          1.3660     0.0000     0.0000 c3         1 699       0.701200
      3 F52          1.7210     0.0000     1.3190 f          1 699      -0.250967
      4 F53          1.7320     1.2260    -0.4770 f          1 699      -0.250967
      5 C2           1.9640    -1.1210    -0.7800 ca         1 699      -0.195300
      6 C1           1.1360    -2.0430    -1.4210 ca         1 699      -0.088500
      7 C6           1.6950    -3.0930    -2.1510 ca         1 699      -0.084500
      8 C3           3.3490    -1.2490    -0.8690 ca         1 699      -0.088500
      9 C4           3.9080    -2.2980    -1.5980 ca         1 699      -0.084500
     10 C5           3.0780    -3.2160    -2.2360 ca         1 699      -0.050600
     11 C11          3.6660    -4.3210    -3.0030 c          1 699       0.667700
     12 O13          3.8530    -5.3630    -2.3730 o          1 699      -0.646100
     13 N12          3.9440    -4.1490    -4.3650 n          1 699      -0.427800
     14 C17          4.0160    -2.8850    -5.1330 c3         1 699       0.028400
     15 C34          2.6340    -2.4810    -5.5680 c          1 699       0.852600
     16 O36          2.3600    -1.2120    -5.1760 o          1 699      -0.798300
     17 O35          1.8590    -3.1900    -6.1920 o          1 699      -0.798300
     18 C33          4.6870    -1.7140    -4.4070 c3         1 699      -0.045400
     19 C37          4.9000    -0.4840    -5.3020 c3         1 699      -0.050700
     20 C44          5.7370    -0.7980    -6.5420 c3         1 699      -0.065100
     21 C40          3.5430     0.0850    -5.7250 c3         1 699      -0.065100
     22 C16          4.8650    -3.2370    -6.3760 c3         1 699      -0.087400
     23 C15          4.7080    -4.7420    -6.5710 c3         1 699      -0.159700
     24 C22          3.6100    -5.0410    -7.5510 c          1 699       0.905600
     25 O25          3.4740    -6.3790    -7.7240 o          1 699      -0.835800
     26 O24          2.9270    -4.2020    -8.1180 o          1 699      -0.835800
     27 C14          4.5020    -5.2710    -5.1450 c3         1 699       0.213000
     28 C20          3.6770    -6.5440    -5.0750 cc         1 699       0.046600
     29 S29          4.4690    -8.0580    -5.1320 ss         1 699      -0.120800
     30 C26          2.3130    -6.6700    -4.9670 cd         1 699      -0.118000
     31 C27          1.9080    -8.0350    -4.9300 cd         1 699      -0.137000
     32 C28          2.9810    -8.8960    -5.0110 cc         1 699      -0.175100
     33 H1           0.0600    -1.9450    -1.3520 ha         1 699       0.128000
     34 H3           3.9920    -0.5330    -0.3710 ha         1 699       0.128000
     35 H6           1.0540    -3.8110    -2.6490 ha         1 699       0.149500
     36 H4           4.9850    -2.3980    -1.6680 ha         1 699       0.149500
     37 H14          5.4810    -5.4920    -4.7370 h1         1 699       0.007700
     38 H331         5.6500    -2.0430    -4.0360 hc         1 699       0.017700
     39 H332         4.0690    -1.4280    -3.5650 hc         1 699       0.017700
     40 H161         5.9050    -2.9900    -6.2000 hc         1 699       0.048700
     41 H162         4.4910    -2.7090    -7.2450 hc         1 699       0.048700
     42 H37          5.4190     0.2710    -4.7240 hc         1 699      -0.007300
     43 H441         5.1310    -1.3400    -7.2590 hc         1 699       0.026867
     44 H442         6.5890    -1.4050    -6.2580 hc         1 699       0.026867
     45 H443         6.0840     0.1260    -6.9870 hc         1 699       0.026867
     46 H401         3.0680    -0.5950    -6.4220 hc         1 699       0.026867
     47 H402         2.9130     0.2050    -4.8510 hc         1 699       0.026867
     48 H403         3.6880     1.0480    -6.2000 hc         1 699       0.026867
     49 H15          5.6400    -5.1400    -6.9550 hc         1 699       0.031700
     50 H26          1.6290    -5.8320    -4.9160 ha         1 699       0.172000
     51 H28          2.8930    -9.9760    -5.0000 h4         1 699       0.124000
     52 H27          0.8770    -8.3580    -4.8470 ha         1 699       0.116000
@<TRIPOS>BOND
     1     1     2 1
     2     2     3 1
     3     2     4 1
     4     2     5 1
     5     5     6 ar
     6     5     8 ar
     7     6     7 ar
     8     6    33 1
     9     7    10 ar
    10     7    35 1
    11     8     9 ar
    12     8    34 1
    13     9    10 ar
    14     9    36 1
    15    10    11 1
    16    11    12 2
    17    11    13 1
    18    13    14 1
    19    13    27 1
    20    14    15 1
    21    14    18 1
    22    14    22 1
    23    15    16 1
    24    15    17 1
    25    18    19 1
    26    18    38 1
    27    18    39 1
    28    19    20 1
    29    19    21 1
    30    19    42 1
    31    20    43 1
    32    20    44 1
    33    20    45 1
    34    21    46 1
    35    21    47 1
    36    21    48 1
    37    22    23 1
    38    22    40 1
    39    22    41 1
    40    23    24 1
    41    23    27 1
    42    23    49 1
    43    24    25 1
    44    24    26 1
    45    27    28 1
    46    27    37 1
    47    28    29 1
    48    28    30 2
    49    29    32 1
    50    30    31 1
    51    30    50 1
    52    31    32 2
    53    31    52 1
    54    32    51 1
@<TRIPOS>SUBSTRUCTURE
     1 699         1 TEMP              0 ****  ****    0 ROOT
