@<TRIPOS>MOLECULE
699
   52    55     1     0     0
SMALL
bcc


@<TRIPOS>ATOM
      1 F54          0.0000     0.0000     0.0000 f          1 699      -0.152333
      2 C51          1.3660     0.0000     0.0000 c3         1 699       0.414000
      3 F52          1.7210     0.0000     1.3190 f          1 699      -0.152333
      4 F53          1.7320     1.2260    -0.4770 f          1 699      -0.152333
      5 C2           1.9640    -1.1210    -0.7800 ca         1 699      -0.216000
      6 C1           1.1360    -2.0430    -1.4210 ca         1 699      -0.051500
      7 C6           1.6950    -3.0930    -2.1510 ca         1 699      -0.056000
      8 C3           3.3490    -1.2490    -0.8690 ca         1 699      -0.051500
      9 C4           3.9080    -2.2980    -1.5980 ca         1 699      -0.056000
     10 C5           3.0780    -3.2160    -2.2360 ca         1 699      -0.032000
     11 C11          3.6660    -4.3210    -3.0030 c2         1 699       0.271000
     12 O13          3.8530    -5.3630    -2.3730 o          1 699      -0.453000
     13 N12          3.9440    -4.1490    -4.3650 n          1 699       0.062000
     14 C17          4.0160    -2.8850    -5.1330 c3         1 699      -0.068000
     15 C34          2.6340    -2.4810    -5.5680 c2         1 699       0.344000
     16 O36          2.3600    -1.2120    -5.1760 os         1 699      -0.700000
     17 O35          1.8590    -3.1900    -6.1920 o          1 699      -0.446000
     18 C33          4.6870    -1.7140    -4.4070 c3         1 699      -0.091000
     19 C37          4.9000    -0.4840    -5.3020 c3         1 699      -0.049000
     20 C44          5.7370    -0.7980    -6.5420 c3         1 699      -0.166000
     21 C40          3.5430     0.0850    -5.7250 DU         1 699      -0.166000
     22 C16          4.8650    -3.2370    -6.3760 c3         1 699      -0.149000
     23 C15          4.7080    -4.7420    -6.5710 c3         1 699      -0.133000
     24 C22          3.6100    -5.0410    -7.5510 c2         1 699       0.407000
     25 O25          3.4740    -6.3790    -7.7240 o          1 699      -0.616500
     26 O24          2.9270    -4.2020    -8.1180 o          1 699      -0.616500
     27 C14          4.5020    -5.2710    -5.1450 c3         1 699       0.060000
     28 C20          3.6770    -6.5440    -5.0750 c2         1 699      -0.150000
     29 S29          4.4690    -8.0580    -5.1320 ss         1 699       0.282000
     30 C26          2.3130    -6.6700    -4.9670 c2         1 699      -0.098000
     31 C27          1.9080    -8.0350    -4.9300 c2         1 699      -0.100000
     32 C28          2.9810    -8.8960    -5.0110 c2         1 699      -0.376000
     33 H1           0.0600    -1.9450    -1.3520 ha         1 699       0.100500
     34 H3           3.9920    -0.5330    -0.3710 ha         1 699       0.100500
     35 H6           1.0540    -3.8110    -2.6490 ha         1 699       0.118000
     36 H4           4.9850    -2.3980    -1.6680 ha         1 699       0.118000
     37 H14          5.4810    -5.4920    -4.7370 h1         1 699       0.031000
     38 H331         5.6500    -2.0430    -4.0360 hc         1 699       0.041500
     39 H332         4.0690    -1.4280    -3.5650 hc         1 699       0.041500
     40 H161         5.9050    -2.9900    -6.2000 hc         1 699       0.078000
     41 H162         4.4910    -2.7090    -7.2450 hc         1 699       0.078000
     42 H37          5.4190     0.2710    -4.7240 hc         1 699       0.010000
     43 H441         5.1310    -1.3400    -7.2590 hc         1 699       0.044667
     44 H442         6.5890    -1.4050    -6.2580 hc         1 699       0.044667
     45 H443         6.0840     0.1260    -6.9870 hc         1 699       0.044667
     46 H401         3.0680    -0.5950    -6.4220 ha         1 699       0.068667
     47 H402         2.9130     0.2050    -4.8510 ha         1 699       0.068667
     48 H403         3.6880     1.0480    -6.2000 ha         1 699       0.068667
     49 H15          5.6400    -5.1400    -6.9550 hc         1 699       0.053000
     50 H26          1.6290    -5.8320    -4.9160 ha         1 699       0.144000
     51 H28          2.8930    -9.9760    -5.0000 h4         1 699       0.113000
     52 H27          0.8770    -8.3580    -4.8470 ha         1 699       0.091000
@<TRIPOS>BOND
     1     1     2 1   
     2     2     3 1   
     3     2     4 1   
     4     2     5 1   
     5     5     6 1   
     6     5     8 1   
     7     6     7 1   
     8     6    33 1   
     9     7    10 1   
    10     7    35 1   
    11     8     9 1   
    12     8    34 1   
    13     9    10 1   
    14     9    36 1   
    15    10    11 1   
    16    11    12 1   
    17    11    13 1   
    18    13    14 1   
    19    13    27 1   
    20    14    15 1   
    21    14    18 1   
    22    14    22 1   
    23    15    16 1   
    24    15    17 1   
    25    16    21 1   
    26    18    19 1   
    27    18    38 1   
    28    18    39 1   
    29    19    20 1   
    30    19    21 1   
    31    19    42 1   
    32    20    43 1   
    33    20    44 1   
    34    20    45 1   
    35    21    46 1   
    36    21    47 1   
    37    21    48 1   
    38    22    23 1   
    39    22    40 1   
    40    22    41 1   
    41    23    24 1   
    42    23    27 1   
    43    23    49 1   
    44    24    25 1   
    45    24    26 1   
    46    27    28 1   
    47    27    37 1   
    48    28    29 1   
    49    28    30 1   
    50    29    32 1   
    51    30    31 1   
    52    30    50 1   
    53    31    32 1   
    54    31    52 1   
    55    32    51 1   
@<TRIPOS>SUBSTRUCTURE
     1 699         1 TEMP              0 ****  ****    0 ROOT
