@<TRIPOS>MOLECULE
69A
   42    44     1     0     0
SMALL
bcc


@<TRIPOS>ATOM
      1 CAI          0.0000     0.0000     0.0000 ca         1 69A      -0.089000
      2 CAJ          1.3770     0.0000     0.0000 ca         1 69A      -0.097000
      3 CAK          2.0800     0.0000     1.1950 ca         1 69A      -0.087000
      4 CAE          1.4010    -0.0040     2.4010 ca         1 69A      -0.144400
      5 NAF          2.1090     0.0250     3.6130 ns         1 69A      -0.056100
      6 CAG          1.7450     0.9320     4.5440 c          1 69A       0.601500
      7 OAM          2.2880     0.9470     5.6280 o          1 69A      -0.661500
      8 CAA          0.6600     1.9250     4.2250 c3         1 69A      -0.145400
      9 CAB         -0.7090     1.2540     4.2900 c3         1 69A       0.141500
     10 CAL         -1.7410     2.1410     3.5920 c3         1 69A      -0.012100
     11 NAC         -0.6690    -0.0540     3.6300 nu         1 69A      -0.401600
     12 CAD          0.0070    -0.0200     2.4190 ca         1 69A       0.059600
     13 CAH         -0.7010    -0.0040     1.2100 ca         1 69A      -0.119600
     14 CAN         -2.1760    -0.0030     1.2130 c          1 69A       0.587700
     15 OAP         -2.7810    -0.0070     2.2670 o          1 69A      -0.617100
     16 NAO         -2.8520     0.0010     0.0480 ns         1 69A      -0.207900
     17 CAQ         -4.3170     0.0020     0.0500 c3         1 69A       0.115300
     18 CAR         -4.8230     0.0080    -1.3700 ca         1 69A      -0.128300
     19 CAS         -5.0550    -1.1860    -2.0260 ca         1 69A      -0.084000
     20 CAT         -5.5190    -1.1820    -3.3270 ca         1 69A      -0.102000
     21 CAU         -5.7500     0.0190    -3.9740 ca         1 69A      -0.092000
     22 CAV         -5.5170     1.2130    -3.3180 ca         1 69A      -0.102000
     23 CAW         -5.0590     1.2070    -2.0140 ca         1 69A      -0.084000
     24 H1          -0.5410    -0.0000    -0.9390 ha         1 69A       0.107000
     25 H2           1.9160     0.0030    -0.9400 ha         1 69A       0.108000
     26 H3           3.1630     0.0000     1.1840 ha         1 69A       0.111000
     27 H4           2.8640    -0.6100     3.7820 hn         1 69A       0.186500
     28 H5           0.8180     2.3170     3.2270 hc         1 69A       0.047700
     29 H6           0.6950     2.7350     4.9430 hc         1 69A       0.047700
     30 H7          -0.9900     1.1200     5.3280 h1         1 69A       0.042700
     31 H8          -1.7880     3.1020     4.0910 hc         1 69A       0.017033
     32 H9          -1.4530     2.2860     2.5580 hc         1 69A       0.017033
     33 H10         -2.7130     1.6650     3.6330 hc         1 69A       0.017033
     34 H11         -0.2340    -0.7210     4.2370 hn         1 69A       0.254800
     35 H12         -2.3540    -0.0070    -0.8200 hn         1 69A       0.181500
     36 H13         -4.6760     0.8850     0.5650 h1         1 69A       0.029200
     37 H14         -4.6780    -0.8840     0.5580 h1         1 69A       0.029200
     38 H15         -4.8740    -2.1270    -1.5190 ha         1 69A       0.108500
     39 H16         -5.7010    -2.1180    -3.8410 ha         1 69A       0.105000
     40 H17         -6.1110     0.0230    -4.9950 ha         1 69A       0.104000
     41 H18         -5.7000     2.1530    -3.8240 ha         1 69A       0.105000
     42 H19         -4.8760     2.1430    -1.5010 ha         1 69A       0.108500
@<TRIPOS>BOND
     1     1     2 ar  
     2     1    13 ar  
     3     1    24 1   
     4     2     3 ar  
     5     2    25 1   
     6     3     4 ar  
     7     3    26 1   
     8     4     5 1   
     9     4    12 ar  
    10     5     6 1   
    11     5    27 1   
    12     6     7 2   
    13     6     8 1   
    14     8     9 1   
    15     8    28 1   
    16     8    29 1   
    17     9    10 1   
    18     9    11 1   
    19     9    30 1   
    20    10    31 1   
    21    10    32 1   
    22    10    33 1   
    23    11    12 1   
    24    11    34 1   
    25    12    13 ar  
    26    13    14 1   
    27    14    15 2   
    28    14    16 1   
    29    16    17 1   
    30    16    35 1   
    31    17    18 1   
    32    17    36 1   
    33    17    37 1   
    34    18    19 ar  
    35    18    23 ar  
    36    19    20 ar  
    37    19    38 1   
    38    20    21 ar  
    39    20    39 1   
    40    21    22 ar  
    41    21    40 1   
    42    22    23 ar  
    43    22    41 1   
    44    23    42 1   
@<TRIPOS>SUBSTRUCTURE
     1 69A         1 TEMP              0 ****  ****    0 ROOT
