@<TRIPOS>MOLECULE
molecule
   42    44     1     0     0
SMALL
bcc


@<TRIPOS>ATOM
      1 CAI          0.0000     0.0000     0.0000 ca         1 69A      -0.115000
      2 CAJ          1.3770     0.0000     0.0000 ca         1 69A      -0.127000
      3 CAK          2.0800     0.0000     1.1950 ca         1 69A      -0.121000
      4 CAE          1.4010    -0.0040     2.4010 ca         1 69A      -0.006400
      5 NAF          2.1090     0.0250     3.6130 ns         1 69A      -0.489100
      6 CAG          1.7450     0.9320     4.5440 c          1 69A       0.696500
      7 OAM          2.2880     0.9470     5.6280 o          1 69A      -0.624500
      8 CAA          0.6600     1.9250     4.2250 c3         1 69A      -0.198400
      9 CAB         -0.7090     1.2540     4.2900 c3         1 69A       0.191500
     10 CAL         -1.7410     2.1410     3.5920 c3         1 69A      -0.085100
     11 NAC         -0.6690    -0.0540     3.6300 nu         1 69A      -0.678600
     12 CAD          0.0070    -0.0200     2.4190 ca         1 69A       0.129600
     13 CAH         -0.7010    -0.0040     1.2100 ca         1 69A      -0.112600
     14 CAN         -2.1760    -0.0030     1.2130 c          1 69A       0.667700
     15 OAP         -2.7810    -0.0070     2.2670 o          1 69A      -0.571100
     16 NAO         -2.8520     0.0010     0.0480 ns         1 69A      -0.588900
     17 CAQ         -4.3170     0.0020     0.0500 c3         1 69A       0.163300
     18 CAR         -4.8230     0.0080    -1.3700 ca         1 69A      -0.119300
     19 CAS         -5.0550    -1.1860    -2.0260 ca         1 69A      -0.112500
     20 CAT         -5.5190    -1.1820    -3.3270 ca         1 69A      -0.131000
     21 CAU         -5.7500     0.0190    -3.9740 ca         1 69A      -0.120000
     22 CAV         -5.5170     1.2130    -3.3180 ca         1 69A      -0.131000
     23 CAW         -5.0590     1.2070    -2.0140 ca         1 69A      -0.112500
     24 H1          -0.5410    -0.0000    -0.9390 ha         1 69A       0.132000
     25 H2           1.9160     0.0030    -0.9400 ha         1 69A       0.138000
     26 H3           3.1630     0.0000     1.1840 ha         1 69A       0.140000
     27 H4           2.8640    -0.6100     3.7820 hn         1 69A       0.340500
     28 H5           0.8180     2.3170     3.2270 hc         1 69A       0.077200
     29 H6           0.6950     2.7350     4.9430 hc         1 69A       0.077200
     30 H7          -0.9900     1.1200     5.3280 h1         1 69A       0.074700
     31 H8          -1.7880     3.1020     4.0910 hc         1 69A       0.047033
     32 H9          -1.4530     2.2860     2.5580 hc         1 69A       0.047033
     33 H10         -2.7130     1.6650     3.6330 hc         1 69A       0.047033
     34 H11         -0.2340    -0.7210     4.2370 hn         1 69A       0.374800
     35 H12         -2.3540    -0.0070    -0.8200 hn         1 69A       0.315500
     36 H13         -4.6760     0.8850     0.5650 h1         1 69A       0.059200
     37 H14         -4.6780    -0.8840     0.5580 h1         1 69A       0.059200
     38 H15         -4.8740    -2.1270    -1.5190 ha         1 69A       0.135500
     39 H16         -5.7010    -2.1180    -3.8410 ha         1 69A       0.132500
     40 H17         -6.1110     0.0230    -4.9950 ha         1 69A       0.131000
     41 H18         -5.7000     2.1530    -3.8240 ha         1 69A       0.132500
     42 H19         -4.8760     2.1430    -1.5010 ha         1 69A       0.135500
@<TRIPOS>BOND
     1     8     9 1
     2     8     6 1
     3     9    10 1
     4     9    11 1
     5    15    14 2
     6    13    14 1
     7    13     1 ar
     8    13    12 ar
     9    14    16 1
    10     6     7 2
    11     6     5 1
    12     1     2 ar
    13    11    12 1
    14    12     4 ar
    15     2     3 ar
    16     4     3 ar
    17     4     5 1
    18    16    17 1
    19    17    18 1
    20    18    19 ar
    21    18    23 ar
    22    19    20 ar
    23    23    22 ar
    24    20    21 ar
    25    22    21 ar
    26     1    24 1
    27     2    25 1
    28     3    26 1
    29     5    27 1
    30     8    28 1
    31     8    29 1
    32     9    30 1
    33    10    31 1
    34    10    32 1
    35    10    33 1
    36    11    34 1
    37    16    35 1
    38    17    36 1
    39    17    37 1
    40    19    38 1
    41    20    39 1
    42    21    40 1
    43    22    41 1
    44    23    42 1
@<TRIPOS>SUBSTRUCTURE
     1 69A         1 TEMP              0 ****  ****    0 ROOT
