@<TRIPOS>MOLECULE
molecule
   48    52     1     0     0
SMALL
bcc


@<TRIPOS>ATOM
      1 CAY          0.0000     0.0000     0.0000 cx         1 69B      -0.125400
      2 CAZ          1.5300     0.0000     0.0000 cx         1 69B      -0.125400
      3 CAW          0.7650     0.0000     1.3240 cx         1 69B      -0.145000
      4 CAV          0.7660     1.2750     2.1280 cc         1 69B       0.411900
      5 CAR          0.2550     1.4370     3.4860 ca         1 69B      -0.248900
      6 CAS         -0.3420     0.5710     4.4060 ca         1 69B      -0.045000
      7 NAU          1.2280     2.4280     1.7380 nd         1 69B      -0.509100
      8 NAT          1.0600     3.3810     2.7470 na         1 69B       0.055900
      9 CAX          1.4600     4.7880     2.6630 c3         1 69B       0.074600
     10 CAQ          0.4620     2.7880     3.8290 ca         1 69B      -0.009200
     11 CAP          0.0680     3.2500     5.0820 ca         1 69B      -0.169000
     12 CAO         -0.5160     2.3990     5.9750 ca         1 69B      -0.040000
     13 CAN         -0.7240     1.0540     5.6480 cp         1 69B      -0.081000
     14 CAJ         -1.3580     0.1440     6.6330 cp         1 69B       0.009000
     15 CAF         -0.8800     0.0850     7.9440 ca         1 69B       0.069600
     16 NAE          0.1690     0.9080     8.3520 nu         1 69B      -0.700600
     17 CAD          1.4430     0.1880     8.4390 c3         1 69B       0.182500
     18 CAI          1.9960    -0.0350     7.0310 c3         1 69B      -0.086100
     19 CAC          1.2460    -1.1610     9.1250 c3         1 69B      -0.193400
     20 CAB          0.3590    -1.0110    10.3320 c          1 69B       0.696500
     21 OAH          0.8360    -1.0200    11.4470 o          1 69B      -0.628500
     22 NAA         -0.9720    -0.8640    10.1630 ns         1 69B      -0.488100
     23 CAG         -1.4760    -0.7850     8.8560 ca         1 69B       0.007600
     24 CAM         -2.5490    -1.5690     8.4680 ca         1 69B      -0.143000
     25 CAL         -3.0260    -1.5030     7.1700 ca         1 69B      -0.115000
     26 CAK         -2.4390    -0.6530     6.2550 ca         1 69B      -0.128000
     27 H1          -0.4670    -0.9390    -0.2700 hc         1 69B       0.080700
     28 H2          -0.4670     0.9390    -0.2700 hc         1 69B       0.080700
     29 H3           1.9980     0.9390    -0.2700 hc         1 69B       0.080700
     30 H4           1.9980    -0.9390    -0.2700 hc         1 69B       0.080700
     31 H5           0.7660    -0.9480     1.8480 hc         1 69B       0.091700
     32 H6          -0.5030    -0.4700     4.1520 ha         1 69B       0.134000
     33 H7           0.5900     5.4190     2.7980 h1         1 69B       0.051033
     34 H8           2.1870     5.0030     3.4360 h1         1 69B       0.051033
     35 H9           1.8980     4.9810     1.6910 h1         1 69B       0.051033
     36 H10          0.2230     4.2890     5.3480 ha         1 69B       0.131000
     37 H11         -0.8180     2.7680     6.9480 ha         1 69B       0.147000
     38 H12         -0.0490     1.3100     9.2420 hn         1 69B       0.373800
     39 H13          2.1460     0.7790     9.0140 h1         1 69B       0.070700
     40 H14          3.0070    -0.4190     7.0970 hc         1 69B       0.045700
     41 H15          2.0020     0.9050     6.4920 hc         1 69B       0.045700
     42 H16          1.3720    -0.7480     6.5070 hc         1 69B       0.045700
     43 H17          2.2090    -1.5470     9.4360 hc         1 69B       0.078200
     44 H18          0.7870    -1.8510     8.4280 hc         1 69B       0.078200
     45 H19         -1.5850    -0.8120    10.9520 hn         1 69B       0.339500
     46 H20         -3.0140    -2.2390     9.1810 ha         1 69B       0.137000
     47 H21         -3.8650    -2.1200     6.8710 ha         1 69B       0.136000
     48 H22         -2.8170    -0.6060     5.2410 ha         1 69B       0.141000
@<TRIPOS>BOND
     1     9     8 1   
     2     1     2 1   
     3     1     3 1   
     4     7     8 1   
     5     7     4 2   
     6     8    10 1   
     7     2     3 1   
     8     4     3 1   
     9     4     5 1   
    10    10    11 ar  
    11    10     5 ar  
    12    11    12 ar  
    13     5     6 ar  
    14    18    17 1   
    15    12    13 ar  
    16     6    13 ar  
    17    17    16 1   
    18    17    19 1   
    19    13    14 1   
    20    16    15 1   
    21    14    15 ar  
    22    14    26 ar  
    23    15    23 ar  
    24    19    20 1   
    25    21    20 2   
    26    20    22 1   
    27    26    25 ar  
    28    23    22 1   
    29    23    24 ar  
    30    25    24 ar  
    31     1    27 1   
    32     1    28 1   
    33     2    29 1   
    34     2    30 1   
    35     3    31 1   
    36     6    32 1   
    37     9    33 1   
    38     9    34 1   
    39     9    35 1   
    40    11    36 1   
    41    12    37 1   
    42    16    38 1   
    43    17    39 1   
    44    18    40 1   
    45    18    41 1   
    46    18    42 1   
    47    19    43 1   
    48    19    44 1   
    49    22    45 1   
    50    24    46 1   
    51    25    47 1   
    52    26    48 1   
@<TRIPOS>SUBSTRUCTURE
     1 69B         1 TEMP              0 ****  ****    0 ROOT
