@<TRIPOS>MOLECULE
69B
   48    52     1     0     0
SMALL
bcc


@<TRIPOS>ATOM
      1 CAY          0.0000     0.0000     0.0000 cx         1 69B      -0.071400
      2 CAZ          1.5300     0.0000     0.0000 cx         1 69B      -0.071400
      3 CAW          0.7650     0.0000     1.3240 cx         1 69B      -0.118000
      4 CAV          0.7660     1.2750     2.1280 cc         1 69B       0.435900
      5 CAR          0.2550     1.4370     3.4860 ca         1 69B      -0.255900
      6 CAS         -0.3420     0.5710     4.4060 ca         1 69B      -0.009000
      7 NAU          1.2280     2.4280     1.7380 nd         1 69B      -0.624100
      8 NAT          1.0600     3.3810     2.7470 na         1 69B       0.450900
      9 CAX          1.4600     4.7880     2.6630 c3         1 69B       0.037600
     10 CAQ          0.4620     2.7880     3.8290 ca         1 69B      -0.160200
     11 CAP          0.0680     3.2500     5.0820 ca         1 69B      -0.130000
     12 CAO         -0.5160     2.3990     5.9750 ca         1 69B      -0.024000
     13 CAN         -0.7240     1.0540     5.6480 cp         1 69B      -0.082000
     14 CAJ         -1.3580     0.1440     6.6330 cp         1 69B       0.019000
     15 CAF         -0.8800     0.0850     7.9440 ca         1 69B      -0.005400
     16 NAE          0.1690     0.9080     8.3520 nu         1 69B      -0.434600
     17 CAD          1.4430     0.1880     8.4390 c3         1 69B       0.134500
     18 CAI          1.9960    -0.0350     7.0310 c3         1 69B      -0.008100
     19 CAC          1.2460    -1.1610     9.1250 c3         1 69B      -0.140400
     20 CAB          0.3590    -1.0110    10.3320 c          1 69B       0.600500
     21 OAH          0.8360    -1.0200    11.4470 o          1 69B      -0.665500
     22 NAA         -0.9720    -0.8640    10.1630 ns         1 69B      -0.053100
     23 CAG         -1.4760    -0.7850     8.8560 ca         1 69B      -0.129400
     24 CAM         -2.5490    -1.5690     8.4680 ca         1 69B      -0.112000
     25 CAL         -3.0260    -1.5030     7.1700 ca         1 69B      -0.084000
     26 CAK         -2.4390    -0.6530     6.2550 ca         1 69B      -0.100000
     27 H1          -0.4670    -0.9390    -0.2700 hc         1 69B       0.050200
     28 H2          -0.4670     0.9390    -0.2700 hc         1 69B       0.050200
     29 H3           1.9980     0.9390    -0.2700 hc         1 69B       0.050200
     30 H4           1.9980    -0.9390    -0.2700 hc         1 69B       0.050200
     31 H5           0.7660    -0.9480     1.8480 hc         1 69B       0.060700
     32 H6          -0.5030    -0.4700     4.1520 ha         1 69B       0.107000
     33 H7           0.5900     5.4190     2.7980 h1         1 69B       0.017033
     34 H8           2.1870     5.0030     3.4360 h1         1 69B       0.017033
     35 H9           1.8980     4.9810     1.6910 h1         1 69B       0.017033
     36 H10          0.2230     4.2890     5.3480 ha         1 69B       0.106000
     37 H11         -0.8180     2.7680     6.9480 ha         1 69B       0.115000
     38 H12         -0.0490     1.3100     9.2420 hn         1 69B       0.259800
     39 H13          2.1460     0.7790     9.0140 h1         1 69B       0.040700
     40 H14          3.0070    -0.4190     7.0970 hc         1 69B       0.015033
     41 H15          2.0020     0.9050     6.4920 hc         1 69B       0.015033
     42 H16          1.3720    -0.7480     6.5070 hc         1 69B       0.015033
     43 H17          2.2090    -1.5470     9.4360 hc         1 69B       0.048700
     44 H18          0.7870    -1.8510     8.4280 hc         1 69B       0.048700
     45 H19         -1.5850    -0.8120    10.9520 hn         1 69B       0.185500
     46 H20         -3.0140    -2.2390     9.1810 ha         1 69B       0.111000
     47 H21         -3.8650    -2.1200     6.8710 ha         1 69B       0.106000
     48 H22         -2.8170    -0.6060     5.2410 ha         1 69B       0.114000
@<TRIPOS>BOND
     1     1     2 1   
     2     1     3 1   
     3     1    27 1   
     4     1    28 1   
     5     2     3 1   
     6     2    29 1   
     7     2    30 1   
     8     3     4 1   
     9     3    31 1   
    10     4     5 1   
    11     4     7 2   
    12     5     6 ar  
    13     5    10 ar  
    14     6    13 ar  
    15     6    32 1   
    16     7     8 1   
    17     8     9 1   
    18     8    10 1   
    19     9    33 1   
    20     9    34 1   
    21     9    35 1   
    22    10    11 ar  
    23    11    12 ar  
    24    11    36 1   
    25    12    13 ar  
    26    12    37 1   
    27    13    14 1   
    28    14    15 ar  
    29    14    26 ar  
    30    15    16 1   
    31    15    23 ar  
    32    16    17 1   
    33    16    38 1   
    34    17    18 1   
    35    17    19 1   
    36    17    39 1   
    37    18    40 1   
    38    18    41 1   
    39    18    42 1   
    40    19    20 1   
    41    19    43 1   
    42    19    44 1   
    43    20    21 2   
    44    20    22 1   
    45    22    23 1   
    46    22    45 1   
    47    23    24 ar  
    48    24    25 ar  
    49    24    46 1   
    50    25    26 ar  
    51    25    47 1   
    52    26    48 1   
@<TRIPOS>SUBSTRUCTURE
     1 69B         1 TEMP              0 ****  ****    0 ROOT
