@<TRIPOS>MOLECULE
69C
   38    41     1     0     0
SMALL
bcc


@<TRIPOS>ATOM
      1 S1           0.0000     0.0000     0.0000 ss         1 69C      -0.211000
      2 C2           3.9640     0.0000     0.8560 cc         1 69C      -0.051300
      3 C3           2.7760     0.0000     0.0000 cc         1 69C      -0.178600
      4 C5           1.6100     0.0060     0.7170 cd         1 69C       0.183800
      5 C7           4.6510     0.0250     3.2480 cd         1 69C       0.464800
      6 C9           5.5420     0.0470     5.2950 cc         1 69C      -0.257300
      7 C10         -1.0120     0.0120     1.5010 c3         1 69C       0.076000
      8 C11          5.1400     2.1500    -0.9060 ca         1 69C      -0.121300
      9 C12          6.2540     2.9680    -0.9370 ca         1 69C      -0.098500
     10 C13          6.1180     4.3280    -0.7390 ca         1 69C      -0.096500
     11 C15          3.7540     4.0540    -0.4720 ca         1 69C      -0.096500
     12 C4           2.9370     0.0050    -1.4700 c          1 69C       0.661100
     13 N            4.1830     0.1990    -1.9460 ns         1 69C      -0.181900
     14 S            1.9200     0.0210     2.3920 ss         1 69C      -0.222800
     15 C6           3.6570     0.0160     2.1540 cd         1 69C      -0.022600
     16 N2           5.9620     0.0210     3.1070 nc         1 69C      -0.666800
     17 N1           6.5370     0.0350     4.3840 na         1 69C       0.455400
     18 C8           4.3660     0.0460     4.6290 cd         1 69C      -0.316300
     19 C1           5.3530    -0.0260     0.2380 c3         1 69C       0.034900
     20 C            5.2890     0.6660    -1.1230 c3         1 69C       0.084000
     21 C16          3.8910     2.6920    -0.6710 ca         1 69C      -0.098500
     22 C14          4.8680     4.8720    -0.5080 ca         1 69C      -0.100000
     23 H1           5.6640     0.0590     6.3720 h4         1 69C       0.145000
     24 H2          -0.7790    -0.8600     2.1000 h1         1 69C       0.041700
     25 H3          -0.8010     0.9090     2.0710 h1         1 69C       0.041700
     26 H4          -2.0600    -0.0060     1.2300 h1         1 69C       0.041700
     27 H5           7.2340     2.5420    -1.1180 ha         1 69C       0.117500
     28 H6           6.9910     4.9690    -0.7650 ha         1 69C       0.103000
     29 H7           2.7750     4.4790    -0.2900 ha         1 69C       0.103000
     30 H8           4.3560     0.0140    -2.9140 hn         1 69C       0.180500
     31 H10          3.3790     0.0540     5.0770 ha         1 69C       0.142000
     32 H11          6.0470     0.5020     0.8810 hc         1 69C       0.050700
     33 H12          5.6750    -1.0520     0.1090 hc         1 69C       0.050700
     34 H13          6.2160     0.4770    -1.6510 h1         1 69C       0.033700
     35 H14          3.0180     2.0510    -0.6450 ha         1 69C       0.117500
     36 H15          4.7610     5.9390    -0.3530 ha         1 69C       0.101000
     37 H9           7.5180     0.0340     4.5860 hn         1 69C       0.147700
     38 O            1.9880    -0.1600    -2.2170 o          1 69C      -0.659500
@<TRIPOS>BOND
     1     1     4 1   
     2     1     7 1   
     3     2     3 1   
     4     2    15 2   
     5     2    19 1   
     6     3     4 2   
     7     3    12 1   
     8     4    14 1   
     9     5    15 1   
    10     5    16 2   
    11     5    18 1   
    12     6    17 1   
    13     6    18 2   
    14     6    23 1   
    15     7    24 1   
    16     7    25 1   
    17     7    26 1   
    18     8     9 ar  
    19     8    20 1   
    20     8    21 ar  
    21     9    10 ar  
    22     9    27 1   
    23    10    22 ar  
    24    10    28 1   
    25    11    21 ar  
    26    11    22 ar  
    27    11    29 1   
    28    12    13 1   
    29    12    38 2   
    30    13    20 1   
    31    13    30 1   
    32    14    15 1   
    33    16    17 1   
    34    17    37 1   
    35    18    31 1   
    36    19    20 1   
    37    19    32 1   
    38    19    33 1   
    39    20    34 1   
    40    21    35 1   
    41    22    36 1   
@<TRIPOS>SUBSTRUCTURE
     1 69C         1 TEMP              0 ****  ****    0 ROOT
