@<TRIPOS>MOLECULE
69D
   45    47     1     0     0
SMALL
bcc


@<TRIPOS>ATOM
      1 C05          0.0000     0.0000     0.0000 c3         1 69D       0.271400
      2 C07          1.5120     0.0000     0.0000 ca         1 69D      -0.106300
      3 C08          1.9220     0.0000     1.3250 ca         1 69D      -0.133300
      4 C10         -0.5190     1.3870    -0.2800 ca         1 69D      -0.107300
      5 C11          0.6770     0.0000     2.1810 c3         1 69D       0.258700
      6 C13          2.4450    -0.0020    -1.0190 ca         1 69D      -0.071000
      7 C14          3.2640    -0.0010     1.6330 ca         1 69D      -0.043000
      8 C15         -1.3790     1.9960     0.6140 ca         1 69D      -0.087500
      9 C16         -0.1300     2.0520    -1.4280 ca         1 69D      -0.087500
     10 C17          3.7920    -0.0030    -0.7230 ca         1 69D      -0.070000
     11 C18          4.2120    -0.0010     0.6080 ca         1 69D       0.034000
     12 C19         -1.8560     3.2680     0.3580 ca         1 69D      -0.082500
     13 C20         -0.6050     3.3240    -1.6840 ca         1 69D      -0.082500
     14 C21         -1.4700     3.9320    -0.7930 ca         1 69D       0.036100
     15 C24          5.6100    -0.0020     0.9210 cg         1 69D       0.228800
     16 Br          -2.1220     5.6720    -1.1440 br         1 69D      -0.128100
     17 O02         -0.3960    -0.4210     1.3180 os         1 69D      -0.372600
     18 N03         -4.0440    -1.7590    -2.2430 n3         1 69D      -0.540600
     19 N04          6.7160     0.0140     1.1800 n1         1 69D      -0.374800
     20 C06         -0.5280    -0.9810    -1.0490 c3         1 69D      -0.022400
     21 C09         -2.0520    -0.8780    -1.1240 c3         1 69D      -0.049400
     22 C12         -2.5800    -1.8580    -2.1720 c3         1 69D       0.147800
     23 C22         -4.4580    -0.4460    -2.7530 c3         1 69D       0.180100
     24 C23         -4.6060    -2.8430    -3.0600 c3         1 69D       0.180100
     25 H1           0.6640    -0.8990     2.7840 h1         1 69D       0.026700
     26 H2           0.6650     0.9000     2.7840 h1         1 69D       0.026700
     27 H4           2.1190    -0.0030    -2.0520 ha         1 69D       0.112000
     28 H5           3.5820    -0.0010     2.6690 ha         1 69D       0.115000
     29 H6          -1.6800     1.4770     1.5160 ha         1 69D       0.120000
     30 H7           0.5480     1.5760    -2.1260 ha         1 69D       0.120000
     31 H8           4.5220    -0.0040    -1.5240 ha         1 69D       0.116000
     32 H9          -2.5300     3.7450     1.0590 ha         1 69D       0.117500
     33 H10         -0.3000     3.8450    -2.5840 ha         1 69D       0.117500
     34 H13         -0.2030    -1.9840    -0.8010 hc         1 69D       0.026200
     35 H14         -0.1440    -0.7080    -2.0250 hc         1 69D       0.026200
     36 H15         -2.4820    -1.1870    -0.1780 hc         1 69D       0.035700
     37 H16         -2.3350     0.1470    -1.3310 hc         1 69D       0.035700
     38 H17         -2.1420    -1.3400    -3.0160 h1         1 69D       0.008700
     39 H18         -2.2870    -2.9000    -2.1960 h1         1 69D       0.008700
     40 H19         -3.7640    -0.1210    -3.5180 h1         1 69D       0.001533
     41 H20         -4.4630     0.2720    -1.9420 h1         1 69D       0.001533
     42 H21         -5.4530    -0.5200    -3.1760 h1         1 69D       0.001533
     43 H22         -5.6840    -2.7410    -3.1030 h1         1 69D       0.001533
     44 H23         -4.3510    -3.7990    -2.6170 h1         1 69D       0.001533
     45 H24         -4.1970    -2.7900    -4.0610 h1         1 69D       0.001533
@<TRIPOS>BOND
     1     1     2 1   
     2     1     4 1   
     3     1    17 1   
     4     1    20 1   
     5     2     3 ar  
     6     2     6 ar  
     7     3     5 1   
     8     3     7 ar  
     9     4     8 ar  
    10     4     9 ar  
    11     5    17 1   
    12     5    25 1   
    13     5    26 1   
    14     6    10 ar  
    15     6    27 1   
    16     7    11 ar  
    17     7    28 1   
    18     8    12 ar  
    19     8    29 1   
    20     9    13 ar  
    21     9    30 1   
    22    10    11 ar  
    23    10    31 1   
    24    11    15 1   
    25    12    14 ar  
    26    12    32 1   
    27    13    14 ar  
    28    13    33 1   
    29    14    16 1   
    30    15    19 3   
    31    18    22 1   
    32    18    23 1   
    33    18    24 1   
    34    20    21 1   
    35    20    34 1   
    36    20    35 1   
    37    21    22 1   
    38    21    36 1   
    39    21    37 1   
    40    22    38 1   
    41    22    39 1   
    42    23    40 1   
    43    23    41 1   
    44    23    42 1   
    45    24    43 1   
    46    24    44 1   
    47    24    45 1   
@<TRIPOS>SUBSTRUCTURE
     1 69D         1 TEMP              0 ****  ****    0 ROOT
