@<TRIPOS>MOLECULE
molecule
   51    55     1     0     0
SMALL
bcc


@<TRIPOS>ATOM
      1 C4           0.0000     0.0000     0.0000 c3         1 69E      -0.194400
      2 C5           1.5060     0.0000     0.0000 c          1 69E       0.698500
      3 C11         -0.0940    -0.1720     4.6840 ca         1 69E      -0.128000
      4 C8           1.4270    -0.0700     2.3630 ca         1 69E       0.006600
      5 C9           1.6670     0.8240     3.3950 ca         1 69E      -0.143000
      6 C10          0.9070     0.7700     4.5520 ca         1 69E      -0.115000
      7 C12         -0.3410    -1.0800     3.6560 cp         1 69E       0.010000
      8 C13          0.4300    -1.0330     2.4900 ca         1 69E       0.070600
      9 C1          -0.3900    -2.3020    -0.8730 c3         1 69E      -0.097100
     10 C2          -0.5310    -1.3880     0.3470 c3         1 69E       0.181500
     11 O6           2.1170    -0.0020    -1.0470 o          1 69E      -0.629500
     12 N7           2.1710     0.0000     1.1750 ns         1 69E      -0.489100
     13 N14          0.2200    -1.9570     1.4680 nu         1 69E      -0.697600
     14 C15         -1.4170    -2.0920     3.7980 cp         1 69E      -0.082000
     15 C16         -1.1200    -3.4520     3.6530 ca         1 69E      -0.041000
     16 C17         -2.0970    -4.3940     3.7790 ca         1 69E      -0.167000
     17 C18         -3.4080    -4.0110     4.0580 ca         1 69E      -0.008200
     18 C19         -3.7190    -2.6460     4.2060 ca         1 69E      -0.245900
     19 C20         -2.7140    -1.6870     4.0800 ca         1 69E      -0.043000
     20 C21         -5.1580    -2.5790     4.4880 cc         1 69E       0.466500
     21 N22         -5.6150    -3.8060     4.4960 nd         1 69E      -0.511100
     22 N23         -4.5770    -4.7070     4.2370 na         1 69E       0.053900
     23 C24         -4.7150    -6.1640     4.1690 c3         1 69E       0.075600
     24 C25         -5.9490    -1.3470     4.7210 cd         1 69E      -0.322200
     25 C26         -5.5030    -0.1820     5.3760 cd         1 69E       0.353200
     26 N27         -6.4830     0.6810     5.3840 nc         1 69E      -0.512800
     27 N28         -7.5860     0.1080     4.7400 na         1 69E       0.066400
     28 C29         -7.2400    -1.1310     4.3350 cc         1 69E      -0.080300
     29 C30         -8.8890     0.7450     4.5350 c3         1 69E       0.064600
     30 H1          -0.3570     0.7120     0.7340 hc         1 69E       0.077700
     31 H2          -0.3560     0.2830    -0.9830 hc         1 69E       0.077700
     32 H3          -0.6850    -0.2090     5.5910 ha         1 69E       0.140000
     33 H4           2.4510     1.5650     3.2980 ha         1 69E       0.137000
     34 H5           1.0950     1.4730     5.3540 ha         1 69E       0.136000
     35 H6          -0.8770    -1.8440    -1.7260 hc         1 69E       0.046700
     36 H7           0.6600    -2.4500    -1.0940 hc         1 69E       0.046700
     37 H8          -0.8540    -3.2580    -0.6640 hc         1 69E       0.046700
     38 H9          -1.5760    -1.3100     0.6220 h1         1 69E       0.080700
     39 H10          3.1700     0.0480     1.1980 hn         1 69E       0.338500
     40 H11          1.1030    -2.2980     1.1400 hn         1 69E       0.372800
     41 H12         -0.1020    -3.7600     3.4490 ha         1 69E       0.143000
     42 H13         -1.8530    -5.4440     3.6640 ha         1 69E       0.130000
     43 H14         -2.9140    -0.6540     4.3400 ha         1 69E       0.134000
     44 H15         -4.0950    -6.6210     4.9310 h1         1 69E       0.050700
     45 H16         -5.7500    -6.4370     4.3350 h1         1 69E       0.050700
     46 H17         -4.4020    -6.5110     3.1920 h1         1 69E       0.050700
     47 H18         -4.5170    -0.0290     5.8000 h4         1 69E       0.052100
     48 H19         -7.8750    -1.8320     3.8060 h4         1 69E       0.181000
     49 H20         -8.7440     1.7680     4.2100 h1         1 69E       0.055700
     50 H21         -9.4430     0.2010     3.7790 h1         1 69E       0.055700
     51 H22         -9.4450     0.7380     5.4650 h1         1 69E       0.055700
@<TRIPOS>BOND
     1    29    27 1   
     2    27    26 1   
     3    27    28 1   
     4    12     4 1   
     5    12     2 1   
     6     5     6 ar  
     7     5     4 ar  
     8    26    25 2   
     9    11     2 2   
    10    28    24 2   
    11     6     3 ar  
    12     4     8 ar  
    13     2     1 1   
    14     3     7 ar  
    15    25    24 1   
    16     8     7 ar  
    17     8    13 1   
    18    24    20 1   
    19     7    14 1   
    20    13    10 1   
    21    19    14 ar  
    22    19    18 ar  
    23     9    10 1   
    24     1    10 1   
    25    14    15 ar  
    26    20    18 1   
    27    20    21 2   
    28    18    17 ar  
    29    21    22 1   
    30    15    16 ar  
    31    17    16 ar  
    32    17    22 1   
    33    22    23 1   
    34     1    30 1   
    35     1    31 1   
    36     3    32 1   
    37     5    33 1   
    38     6    34 1   
    39     9    35 1   
    40     9    36 1   
    41     9    37 1   
    42    10    38 1   
    43    12    39 1   
    44    13    40 1   
    45    15    41 1   
    46    16    42 1   
    47    19    43 1   
    48    23    44 1   
    49    23    45 1   
    50    23    46 1   
    51    25    47 1   
    52    28    48 1   
    53    29    49 1   
    54    29    50 1   
    55    29    51 1   
@<TRIPOS>SUBSTRUCTURE
     1 69E         1 TEMP              0 ****  ****    0 ROOT
