@<TRIPOS>MOLECULE
69E
   51    55     1     0     0
SMALL
bcc


@<TRIPOS>ATOM
      1 C4           0.0000     0.0000     0.0000 c3         1 69E      -0.139400
      2 C5           1.5060     0.0000     0.0000 c          1 69E       0.602500
      3 C11         -0.0940    -0.1720     4.6840 ca         1 69E      -0.099000
      4 C8           1.4270    -0.0700     2.3630 ca         1 69E      -0.130400
      5 C9           1.6670     0.8240     3.3950 ca         1 69E      -0.112000
      6 C10          0.9070     0.7700     4.5520 ca         1 69E      -0.083000
      7 C12         -0.3410    -1.0800     3.6560 cp         1 69E       0.019000
      8 C13          0.4300    -1.0330     2.4900 ca         1 69E      -0.004400
      9 C1          -0.3900    -2.3020    -0.8730 c3         1 69E      -0.004100
     10 C2          -0.5310    -1.3880     0.3470 c3         1 69E       0.131500
     11 O6           2.1170    -0.0020    -1.0470 o          1 69E      -0.666500
     12 N7           2.1710     0.0000     1.1750 ns         1 69E      -0.054100
     13 N14          0.2200    -1.9570     1.4680 nu         1 69E      -0.438600
     14 C15         -1.4170    -2.0920     3.7980 cp         1 69E      -0.084000
     15 C16         -1.1200    -3.4520     3.6530 ca         1 69E      -0.023000
     16 C17         -2.0970    -4.3940     3.7790 ca         1 69E      -0.130000
     17 C18         -3.4080    -4.0110     4.0580 ca         1 69E      -0.160200
     18 C19         -3.7190    -2.6460     4.2060 ca         1 69E      -0.254900
     19 C20         -2.7140    -1.6870     4.0800 ca         1 69E      -0.010000
     20 C21         -5.1580    -2.5790     4.4880 cc         1 69E       0.506500
     21 N22         -5.6150    -3.8060     4.4960 nd         1 69E      -0.634100
     22 N23         -4.5770    -4.7070     4.2370 na         1 69E       0.449900
     23 C24         -4.7150    -6.1640     4.1690 c3         1 69E       0.038600
     24 C25         -5.9490    -1.3470     4.7210 cc         1 69E      -0.332200
     25 C26         -5.5030    -0.1820     5.3760 cc         1 69E       0.409200
     26 N27         -6.4830     0.6810     5.3840 nd         1 69E      -0.652800
     27 N28         -7.5860     0.1080     4.7400 na         1 69E       0.490400
     28 C29         -7.2400    -1.1310     4.3350 cd         1 69E      -0.219300
     29 C30         -8.8890     0.7450     4.5350 c3         1 69E       0.025600
     30 H1          -0.3570     0.7120     0.7340 hc         1 69E       0.048200
     31 H2          -0.3560     0.2830    -0.9830 hc         1 69E       0.048200
     32 H3          -0.6850    -0.2090     5.5910 ha         1 69E       0.113000
     33 H4           2.4510     1.5650     3.2980 ha         1 69E       0.110000
     34 H5           1.0950     1.4730     5.3540 ha         1 69E       0.106000
     35 H6          -0.8770    -1.8440    -1.7260 hc         1 69E       0.014033
     36 H7           0.6600    -2.4500    -1.0940 hc         1 69E       0.014033
     37 H8          -0.8540    -3.2580    -0.6640 hc         1 69E       0.014033
     38 H9          -1.5760    -1.3100     0.6220 h1         1 69E       0.046700
     39 H10          3.1700     0.0480     1.1980 hn         1 69E       0.185500
     40 H11          1.1030    -2.2980     1.1400 hn         1 69E       0.261800
     41 H12         -0.1020    -3.7600     3.4490 ha         1 69E       0.111000
     42 H13         -1.8530    -5.4440     3.6640 ha         1 69E       0.106000
     43 H14         -2.9140    -0.6540     4.3400 ha         1 69E       0.109000
     44 H15         -4.0950    -6.6210     4.9310 h1         1 69E       0.016033
     45 H16         -5.7500    -6.4370     4.3350 h1         1 69E       0.016033
     46 H17         -4.4020    -6.5110     3.1920 h1         1 69E       0.016033
     47 H18         -4.5170    -0.0290     5.8000 h4         1 69E       0.006100
     48 H19         -7.8750    -1.8320     3.8060 h4         1 69E       0.154000
     49 H20         -8.7440     1.7680     4.2100 h1         1 69E       0.021700
     50 H21         -9.4430     0.2010     3.7790 h1         1 69E       0.021700
     51 H22         -9.4450     0.7380     5.4650 h1         1 69E       0.021700
@<TRIPOS>BOND
     1     1     2 1   
     2     1    10 1   
     3     1    30 1   
     4     1    31 1   
     5     2    11 2   
     6     2    12 1   
     7     3     6 ar  
     8     3     7 ar  
     9     3    32 1   
    10     4     5 ar  
    11     4     8 ar  
    12     4    12 1   
    13     5     6 ar  
    14     5    33 1   
    15     6    34 1   
    16     7     8 ar  
    17     7    14 1   
    18     8    13 1   
    19     9    10 1   
    20     9    35 1   
    21     9    36 1   
    22     9    37 1   
    23    10    13 1   
    24    10    38 1   
    25    12    39 1   
    26    13    40 1   
    27    14    15 ar  
    28    14    19 ar  
    29    15    16 ar  
    30    15    41 1   
    31    16    17 ar  
    32    16    42 1   
    33    17    18 ar  
    34    17    22 1   
    35    18    19 ar  
    36    18    20 1   
    37    19    43 1   
    38    20    21 2   
    39    20    24 1   
    40    21    22 1   
    41    22    23 1   
    42    23    44 1   
    43    23    45 1   
    44    23    46 1   
    45    24    25 1   
    46    24    28 2   
    47    25    26 2   
    48    25    47 1   
    49    26    27 1   
    50    27    28 1   
    51    27    29 1   
    52    28    48 1   
    53    29    49 1   
    54    29    50 1   
    55    29    51 1   
@<TRIPOS>SUBSTRUCTURE
     1 69E         1 TEMP              0 ****  ****    0 ROOT
