@<TRIPOS>MOLECULE
molecule
   49    52     1     0     0
SMALL
bcc


@<TRIPOS>ATOM
      1 C4           0.0000     0.0000     0.0000 c3         1 69F      -0.194400
      2 C5           1.5060     0.0000     0.0000 c          1 69F       0.698500
      3 C11         -0.0920    -0.1750     4.6840 ca         1 69F      -0.122000
      4 C8           1.4280    -0.0710     2.3640 ca         1 69F       0.004600
      5 C9           1.6670     0.8220     3.3960 ca         1 69F      -0.140000
      6 C10          0.9070     0.7670     4.5510 ca         1 69F      -0.117000
      7 C12         -0.3390    -1.0840     3.6560 cp         1 69F      -0.001000
      8 C13          0.4310    -1.0350     2.4910 ca         1 69F       0.075600
      9 C1          -0.3900    -2.3030    -0.8730 c3         1 69F      -0.097100
     10 C2          -0.5310    -1.3890     0.3460 c3         1 69F       0.181500
     11 O6           2.1170     0.0000    -1.0480 o          1 69F      -0.629500
     12 N7           2.1710     0.0000     1.1740 ns         1 69F      -0.488100
     13 N14          0.2220    -1.9580     1.4680 nu         1 69F      -0.698600
     14 C15         -1.4130    -2.0960     3.7990 cp         1 69F       0.000000
     15 C16         -1.1200    -3.4520     3.6540 ca         1 69F      -0.122000
     16 C17         -2.1210    -4.3920     3.7860 ca         1 69F      -0.097000
     17 C18         -3.4160    -3.9950     4.0630 ca         1 69F      -0.220000
     18 C19         -3.7170    -2.6470     4.2080 ca         1 69F       0.136100
     19 C20         -2.7170    -1.6970     4.0830 ca         1 69F      -0.151000
     20 O21         -4.9910    -2.2610     4.4800 os         1 69F      -0.325900
     21 C22         -5.9700    -3.2940     4.6010 c3         1 69F       0.187700
     22 C23         -7.3140    -2.6810     4.9000 ca         1 69F      -0.095300
     23 C24         -7.7010    -2.4710     6.2110 ca         1 69F      -0.103000
     24 C25         -8.9310    -1.9030     6.4850 ca         1 69F      -0.132000
     25 C26         -9.7740    -1.5450     5.4490 ca         1 69F      -0.117000
     26 C27         -9.3860    -1.7550     4.1390 ca         1 69F      -0.132000
     27 C28         -8.1560    -2.3230     3.8640 ca         1 69F      -0.103000
     28 H1          -0.3570     0.7110     0.7350 hc         1 69F       0.077700
     29 H2          -0.3570     0.2830    -0.9830 hc         1 69F       0.077700
     30 H3          -0.6820    -0.2120     5.5910 ha         1 69F       0.143000
     31 H4           2.4500     1.5640     3.2980 ha         1 69F       0.138000
     32 H5           1.0950     1.4710     5.3530 ha         1 69F       0.137000
     33 H6           0.6600    -2.4480    -1.0970 hc         1 69F       0.047367
     34 H7          -0.8810    -1.8470    -1.7250 hc         1 69F       0.047367
     35 H8          -0.8490    -3.2610    -0.6620 hc         1 69F       0.047367
     36 H9          -1.5750    -1.3120     0.6220 h1         1 69F       0.079700
     37 H10          3.1700     0.0500     1.1970 hn         1 69F       0.339500
     38 H11          1.1050    -2.2970     1.1390 hn         1 69F       0.373800
     39 H12         -0.1060    -3.7660     3.4370 ha         1 69F       0.142000
     40 H13         -1.8910    -5.4450     3.6730 ha         1 69F       0.131000
     41 H14         -4.1990    -4.7370     4.1630 ha         1 69F       0.133000
     42 H15         -2.9500    -0.6450     4.1960 ha         1 69F       0.145000
     43 H16         -5.6910    -3.9630     5.4060 h1         1 69F       0.040700
     44 H17         -6.0250    -3.8500     3.6730 h1         1 69F       0.040700
     45 H18         -7.0400    -2.7510     7.0230 ha         1 69F       0.134000
     46 H19         -9.2350    -1.7380     7.5120 ha         1 69F       0.132000
     47 H20        -10.7380    -1.1000     5.6640 ha         1 69F       0.130000
     48 H21        -10.0460    -1.4750     3.3270 ha         1 69F       0.132000
     49 H22         -7.8520    -2.4880     2.8370 ha         1 69F       0.134000
@<TRIPOS>BOND
     1    24    25 ar  
     2    24    23 ar  
     3    12     4 1   
     4    12     2 1   
     5     5     6 ar  
     6     5     4 ar  
     7    25    26 ar  
     8    11     2 2   
     9    23    22 ar  
    10     6     3 ar  
    11     4     8 ar  
    12    26    27 ar  
    13    22    27 ar  
    14    22    21 1   
    15     2     1 1   
    16    21    20 1   
    17     3     7 ar  
    18     8     7 ar  
    19     8    13 1   
    20     7    14 1   
    21    13    10 1   
    22    19    14 ar  
    23    19    18 ar  
    24     9    10 1   
    25     1    10 1   
    26    20    18 1   
    27    14    15 ar  
    28    18    17 ar  
    29    15    16 ar  
    30    17    16 ar  
    31     1    28 1   
    32     1    29 1   
    33     3    30 1   
    34     5    31 1   
    35     6    32 1   
    36     9    33 1   
    37     9    34 1   
    38     9    35 1   
    39    10    36 1   
    40    12    37 1   
    41    13    38 1   
    42    15    39 1   
    43    16    40 1   
    44    17    41 1   
    45    19    42 1   
    46    21    43 1   
    47    21    44 1   
    48    23    45 1   
    49    24    46 1   
    50    25    47 1   
    51    26    48 1   
    52    27    49 1   
@<TRIPOS>SUBSTRUCTURE
     1 69F         1 TEMP              0 ****  ****    0 ROOT
