@<TRIPOS>MOLECULE
69F
   49    52     1     0     0
SMALL
bcc


@<TRIPOS>ATOM
      1 C4           0.0000     0.0000     0.0000 c3         1 69F      -0.139400
      2 C5           1.5060     0.0000     0.0000 c          1 69F       0.601500
      3 C11         -0.0920    -0.1750     4.6840 ca         1 69F      -0.093000
      4 C8           1.4280    -0.0710     2.3640 ca         1 69F      -0.132400
      5 C9           1.6670     0.8220     3.3960 ca         1 69F      -0.108000
      6 C10          0.9070     0.7670     4.5510 ca         1 69F      -0.086000
      7 C12         -0.3390    -1.0840     3.6560 cp         1 69F       0.006000
      8 C13          0.4310    -1.0350     2.4910 ca         1 69F       0.000600
      9 C1          -0.3900    -2.3030    -0.8730 c3         1 69F      -0.004100
     10 C2          -0.5310    -1.3890     0.3460 c3         1 69F       0.131500
     11 O6           2.1170     0.0000    -1.0480 o          1 69F      -0.666500
     12 N7           2.1710     0.0000     1.1740 ns         1 69F      -0.053100
     13 N14          0.2220    -1.9580     1.4680 nu         1 69F      -0.439600
     14 C15         -1.4130    -2.0960     3.7990 cp         1 69F       0.005000
     15 C16         -1.1200    -3.4520     3.6540 ca         1 69F      -0.110000
     16 C17         -2.1210    -4.3920     3.7860 ca         1 69F      -0.060000
     17 C18         -3.4160    -3.9950     4.0630 ca         1 69F      -0.212000
     18 C19         -3.7170    -2.6470     4.2080 ca         1 69F       0.148100
     19 C20         -2.7170    -1.6970     4.0830 ca         1 69F      -0.137000
     20 O21         -4.9910    -2.2610     4.4800 os         1 69F      -0.301900
     21 C22         -5.9700    -3.2940     4.6010 c3         1 69F       0.262700
     22 C23         -7.3140    -2.6810     4.9000 ca         1 69F      -0.113300
     23 C24         -7.7010    -2.4710     6.2110 ca         1 69F      -0.075000
     24 C25         -8.9310    -1.9030     6.4850 ca         1 69F      -0.105000
     25 C26         -9.7740    -1.5450     5.4490 ca         1 69F      -0.091000
     26 C27         -9.3860    -1.7550     4.1390 ca         1 69F      -0.105000
     27 C28         -8.1560    -2.3230     3.8640 ca         1 69F      -0.075000
     28 H1          -0.3570     0.7110     0.7350 hc         1 69F       0.047700
     29 H2          -0.3570     0.2830    -0.9830 hc         1 69F       0.047700
     30 H3          -0.6820    -0.2120     5.5910 ha         1 69F       0.115000
     31 H4           2.4500     1.5640     3.2980 ha         1 69F       0.111000
     32 H5           1.0950     1.4710     5.3530 ha         1 69F       0.107000
     33 H6           0.6600    -2.4480    -1.0970 hc         1 69F       0.014033
     34 H7          -0.8810    -1.8470    -1.7250 hc         1 69F       0.014033
     35 H8          -0.8490    -3.2610    -0.6620 hc         1 69F       0.014033
     36 H9          -1.5750    -1.3120     0.6220 h1         1 69F       0.045700
     37 H10          3.1700     0.0500     1.1970 hn         1 69F       0.185500
     38 H11          1.1050    -2.2970     1.1390 hn         1 69F       0.262800
     39 H12         -0.1060    -3.7660     3.4370 ha         1 69F       0.115000
     40 H13         -1.8910    -5.4450     3.6730 ha         1 69F       0.101000
     41 H14         -4.1990    -4.7370     4.1630 ha         1 69F       0.119000
     42 H15         -2.9500    -0.6450     4.1960 ha         1 69F       0.120000
     43 H16         -5.6910    -3.9630     5.4060 h1         1 69F       0.004700
     44 H17         -6.0250    -3.8500     3.6730 h1         1 69F       0.004700
     45 H18         -7.0400    -2.7510     7.0230 ha         1 69F       0.106500
     46 H19         -9.2350    -1.7380     7.5120 ha         1 69F       0.104000
     47 H20        -10.7380    -1.1000     5.6640 ha         1 69F       0.102000
     48 H21        -10.0460    -1.4750     3.3270 ha         1 69F       0.104000
     49 H22         -7.8520    -2.4880     2.8370 ha         1 69F       0.106500
@<TRIPOS>BOND
     1     1     2 1   
     2     1    10 1   
     3     1    28 1   
     4     1    29 1   
     5     2    11 2   
     6     2    12 1   
     7     3     6 ar  
     8     3     7 ar  
     9     3    30 1   
    10     4     5 ar  
    11     4     8 ar  
    12     4    12 1   
    13     5     6 ar  
    14     5    31 1   
    15     6    32 1   
    16     7     8 ar  
    17     7    14 1   
    18     8    13 1   
    19     9    10 1   
    20     9    33 1   
    21     9    34 1   
    22     9    35 1   
    23    10    13 1   
    24    10    36 1   
    25    12    37 1   
    26    13    38 1   
    27    14    15 ar  
    28    14    19 ar  
    29    15    16 ar  
    30    15    39 1   
    31    16    17 ar  
    32    16    40 1   
    33    17    18 ar  
    34    17    41 1   
    35    18    19 ar  
    36    18    20 1   
    37    19    42 1   
    38    20    21 1   
    39    21    22 1   
    40    21    43 1   
    41    21    44 1   
    42    22    23 ar  
    43    22    27 ar  
    44    23    24 ar  
    45    23    45 1   
    46    24    25 ar  
    47    24    46 1   
    48    25    26 ar  
    49    25    47 1   
    50    26    27 ar  
    51    26    48 1   
    52    27    49 1   
@<TRIPOS>SUBSTRUCTURE
     1 69F         1 TEMP              0 ****  ****    0 ROOT
