@<TRIPOS>MOLECULE
molecule
   46    48     1     0     0
SMALL
bcc


@<TRIPOS>ATOM
      1 C4           0.0000     0.0000     0.0000 c3         1 69G       0.133200
      2 C14         -0.7050     0.9580    -2.1070 c          1 69G       0.728100
      3 C6          -0.7080     2.3240    -0.1700 cc         1 69G      -0.013400
      4 C7          -1.1610     3.4020    -0.8620 cd         1 69G      -0.074400
      5 C8          -1.4120     3.2600    -2.3020 cd         1 69G      -0.050800
      6 C9          -1.8690     4.1250    -3.3140 cd         1 69G      -0.204000
      7 C10         -1.9010     3.4270    -4.4690 cc         1 69G      -0.117300
      8 C13         -1.1740     2.0190    -2.9030 cc         1 69G      -0.191900
      9 C3           1.5070     0.0000     0.0000 c2         1 69G      -0.200200
     10 C2           2.1620     0.0000     1.1340 c2         1 69G      -0.163200
     11 N5          -0.4890     1.1310    -0.7910 n          1 69G      -0.322000
     12 N11         -1.4850     2.1510    -4.2370 na         1 69G      -0.123100
     13 C16         -1.3960     4.6960    -0.1770 ca         1 69G      -0.041800
     14 C17         -0.6250     5.8110    -0.5060 ca         1 69G      -0.093000
     15 C18         -0.8430     7.0170     0.1300 ca         1 69G      -0.143000
     16 C19         -1.8230     7.1280     1.0950 ca         1 69G      -0.156000
     17 C20         -2.6010     6.0190     1.4340 ca         1 69G      -0.145600
     18 C21         -2.3910     4.8020     0.7900 ca         1 69G      -0.060000
     19 C22         -3.6510     6.1390     2.4690 c          1 69G       0.676700
     20 O23         -4.5220     5.2940     2.5520 o          1 69G      -0.604100
     21 N24         -3.6440     7.1840     3.3200 n          1 69G      -0.493800
     22 C25         -2.7110     8.2940     3.1070 c3         1 69G       0.095300
     23 C26         -4.5670     7.2110     4.4560 c3         1 69G       0.095300
     24 H1          -0.3610    -0.9250    -0.4320 h1         1 69G       0.073700
     25 H2          -0.3610     0.0880     1.0180 h1         1 69G       0.073700
     26 H3          -0.5230     2.4130     0.8940 h4         1 69G       0.160000
     27 H4          -2.1450     5.1650    -3.1890 ha         1 69G       0.157000
     28 H5          -2.2090     3.8210    -5.4300 h4         1 69G       0.170000
     29 H6           2.0480    -0.0010    -0.9380 ha         1 69G       0.144000
     30 H7           4.0300    -0.0830     2.1520 hc         1 69G       0.043367
     31 H8           4.0300    -0.8410     0.5530 hc         1 69G       0.043367
     32 H9           4.0310     0.9220     0.6960 hc         1 69G       0.043367
     33 H10          1.6210     0.0000     2.0730 ha         1 69G       0.120000
     34 H12         -1.4150     1.4280    -4.9260 hn         1 69G       0.311700
     35 H11          0.1460     5.7300    -1.2630 ha         1 69G       0.140000
     36 H13         -0.2420     7.8800    -0.1290 ha         1 69G       0.131000
     37 H14         -1.9870     8.0760     1.5920 ha         1 69G       0.168000
     38 H15         -2.9910     3.9380     1.0500 ha         1 69G       0.159000
     39 H16         -2.9710     8.8150     2.1930 h1         1 69G       0.044367
     40 H17         -1.7020     7.9070     3.0270 h1         1 69G       0.044367
     41 H18         -2.7690     8.9800     3.9430 h1         1 69G       0.044367
     42 H19         -5.5880     7.2050     4.0920 h1         1 69G       0.044367
     43 H20         -4.4000     6.3400     5.0780 h1         1 69G       0.044367
     44 H21         -4.3970     8.1080     5.0390 h1         1 69G       0.044367
     45 O15         -0.4970    -0.1330    -2.6150 o          1 69G      -0.674500
     46 C1           3.6690    -0.0010     1.1340 c3         1 69G      -0.060900
@<TRIPOS>BOND
     1    22    21 1   
     2    21    23 1   
     3    21    19 1   
     4    20    19 2   
     5    19    17 1   
     6     7    12 1   
     7     7     6 2   
     8    12     8 1   
     9     6     5 1   
    10    18    17 ar  
    11    18    13 ar  
    12    17    16 ar  
    13     8     5 2   
    14     8     2 1   
    15     5     4 1   
    16    45     2 2   
    17     2    11 1   
    18     4    13 1   
    19     4     3 2   
    20    13    14 ar  
    21    16    15 ar  
    22    11     3 1   
    23    11     1 1   
    24    14    15 ar  
    25     1     9 1   
    26     9    10 2   
    27    10    46 1   
    28     1    24 1   
    29     1    25 1   
    30     3    26 1   
    31     6    27 1   
    32     7    28 1   
    33     9    29 1   
    34    46    30 1   
    35    46    31 1   
    36    46    32 1   
    37    10    33 1   
    38    12    34 1   
    39    14    35 1   
    40    15    36 1   
    41    16    37 1   
    42    18    38 1   
    43    22    39 1   
    44    22    40 1   
    45    22    41 1   
    46    23    42 1   
    47    23    43 1   
    48    23    44 1   
@<TRIPOS>SUBSTRUCTURE
     1 69G         1 TEMP              0 ****  ****    0 ROOT
