@<TRIPOS>MOLECULE
molecule
   45    46     1     0     0
SMALL
bcc


@<TRIPOS>ATOM
      1 CAV          0.0000     0.0000     0.0000 c3         1 69H      -0.092100
      2 CAU          1.5300     0.0000     0.0000 c3         1 69H      -0.084400
      3 CAT          2.0390     0.0000     1.4430 c3         1 69H      -0.081400
      4 CAS          3.5690     0.0000     1.4430 c3         1 69H      -0.082400
      5 CAR          4.0790    -0.0000     2.8860 c3         1 69H      -0.078400
      6 CAP          5.6090    -0.0000     2.8870 c3         1 69H      -0.035100
      7 CAL          6.1100    -0.0010     4.3080 ca         1 69H      -0.099300
      8 CAM          6.1450     1.1800     5.0280 ca         1 69H       0.126900
      9 FAQ          5.7280     2.3320     4.4570 f          1 69H      -0.134900
     10 CAI          6.6040     1.1840     6.3340 ca         1 69H      -0.158000
     11 CAH          6.5310    -1.1820     4.8910 ca         1 69H      -0.149000
     12 CAB          6.9930    -1.1850     6.1970 ca         1 69H       0.089100
     13 OAA          7.4070    -2.3460     6.7700 oh         1 69H      -0.500100
     14 CAC          7.0320     0.0040     6.9210 ca         1 69H       0.105100
     15 OAD          7.4840     0.0050     8.2040 os         1 69H      -0.238200
     16 CAE          8.8270     0.0270     8.4050 ca         1 69H       0.139100
     17 CAJ          9.6910     0.1650     7.3290 ca         1 69H      -0.195000
     18 CAN         11.0560     0.1880     7.5370 ca         1 69H      -0.098000
     19 CAO         11.5620     0.0720     8.8190 ca         1 69H      -0.158000
     20 CAK         10.7050    -0.0660     9.8940 ca         1 69H      -0.098000
     21 CAF          9.3390    -0.0830     9.6910 ca         1 69H      -0.103300
     22 CAG          8.4040    -0.2330    10.8640 c3         1 69H      -0.037800
     23 H1          -0.3610    -0.0000    -1.0210 hc         1 69H       0.033033
     24 H2          -0.3610    -0.8840     0.5110 hc         1 69H       0.033033
     25 H3          -0.3610     0.8850     0.5110 hc         1 69H       0.033033
     26 H4           1.8910     0.8850    -0.5110 hc         1 69H       0.040200
     27 H5           1.8910    -0.8850    -0.5110 hc         1 69H       0.040200
     28 H6           1.6780    -0.8850     1.9540 hc         1 69H       0.042200
     29 H7           1.6780     0.8850     1.9540 hc         1 69H       0.042200
     30 H8           3.9310     0.8850     0.9320 hc         1 69H       0.041700
     31 H9           3.9310    -0.8850     0.9320 hc         1 69H       0.041700
     32 H10          3.7170     0.8850     3.3960 hc         1 69H       0.047700
     33 H11          3.7170    -0.8850     3.3960 hc         1 69H       0.047700
     34 H12          5.9710     0.8850     2.3770 hc         1 69H       0.056200
     35 H13          5.9710    -0.8840     2.3760 hc         1 69H       0.056200
     36 H14          6.6320     2.1100     6.8960 ha         1 69H       0.164000
     37 H15          6.5170    -2.1020     4.3200 ha         1 69H       0.149000
     38 H16          6.6890    -2.9570     6.7980 ho         1 69H       0.424000
     39 H17          9.2950     0.2560     6.3240 ha         1 69H       0.140000
     40 H18         11.7310     0.2950     6.6960 ha         1 69H       0.131000
     41 H19         12.6330     0.0870     8.9800 ha         1 69H       0.129000
     42 H20         11.1040    -0.1540    10.8970 ha         1 69H       0.134000
     43 H21          8.9780    -0.2710    11.7810 hc         1 69H       0.044033
     44 H22          7.7270     0.6120    10.8960 hc         1 69H       0.044033
     45 H23          7.8340    -1.1480    10.7570 hc         1 69H       0.044033
@<TRIPOS>BOND
     1    20    19 ar
     2    20    21 ar
     3    19    18 ar
     4    22    21 1
     5    21    16 ar
     6    18    17 ar
     7    16    17 ar
     8    16    15 1
     9    15    14 1
    10    14    10 ar
    11    14    12 ar
    12    10     8 ar
    13    13    12 1
    14    12    11 ar
    15     8     9 1
    16     8     7 ar
    17    11     7 ar
    18     1     2 1
    19     7     6 1
    20     4     5 1
    21     4     3 1
    22     2     3 1
    23     5     6 1
    24     1    23 1
    25     1    24 1
    26     1    25 1
    27     2    26 1
    28     2    27 1
    29     3    28 1
    30     3    29 1
    31     4    30 1
    32     4    31 1
    33     5    32 1
    34     5    33 1
    35     6    34 1
    36     6    35 1
    37    10    36 1
    38    11    37 1
    39    13    38 1
    40    17    39 1
    41    18    40 1
    42    19    41 1
    43    20    42 1
    44    22    43 1
    45    22    44 1
    46    22    45 1
@<TRIPOS>SUBSTRUCTURE
     1 69H         1 TEMP              0 ****  ****    0 ROOT
