@<TRIPOS>MOLECULE
69J
   32    33     1     0     0
SMALL
bcc


@<TRIPOS>ATOM
      1 OAH          0.0000     0.0000     0.0000 o          1 69J      -0.450000
      2 NAG          1.2190     0.0000     0.0000 no         1 69J       1.056200
      3 OAM          1.8270     0.0000     1.0550 o          1 69J      -0.450000
      4 CAF          1.9590    -0.0080    -1.2830 ca         1 69J      -0.487200
      5 CAL          1.2690    -0.0140    -2.4780 ca         1 69J       0.024000
      6 CAQ          1.9600    -0.0210    -3.6770 ca         1 69J      -0.162000
      7 CAP          3.3420    -0.0200    -3.6800 ca         1 69J       0.003000
      8 CAK          4.0370    -0.0150    -2.4860 ca         1 69J      -0.218000
      9 CAE          3.3470    -0.0020    -1.2830 ca         1 69J       0.237100
     10 OAD          4.0280     0.0040    -0.1070 os         1 69J      -0.170200
     11 CAC          5.3820     0.1080    -0.1550 ca         1 69J       0.082100
     12 CAJ          6.1680    -1.0340    -0.1370 ca         1 69J      -0.121000
     13 CAO          7.5470    -0.9260    -0.1870 ca         1 69J       0.099900
     14 FAS          8.3120    -2.0390    -0.1690 f          1 69J      -0.121900
     15 CAN          8.1430     0.3220    -0.2540 ca         1 69J      -0.088300
     16 CAR          9.6450     0.4360    -0.3020 c3         1 69J       0.029900
     17 CAT         10.2140     0.2760     1.1090 c3         1 69J       0.005900
     18 CAI          7.3640     1.4640    -0.2720 ca         1 69J      -0.129000
     19 CAB          5.9830     1.3610    -0.2290 ca         1 69J       0.114100
     20 OAA          5.2160     2.4850    -0.2470 oh         1 69J      -0.485100
     21 H1           0.1850    -0.0150    -2.4780 ha         1 69J       0.133000
     22 H2           1.4170    -0.0250    -4.6150 ha         1 69J       0.117000
     23 H3           3.8810    -0.0270    -4.6200 ha         1 69J       0.105000
     24 H4           5.1200    -0.0120    -2.4900 ha         1 69J       0.134000
     25 H5           5.7040    -2.0090    -0.0440 ha         1 69J       0.136000
     26 H6           9.9210     1.4070    -0.6940 hc         1 69J       0.023700
     27 H7          10.0460    -0.3400    -0.9430 hc         1 69J       0.023700
     28 H8          11.2120     0.6960     1.1460 hc         1 69J       0.007033
     29 H9          10.2550    -0.7760     1.3640 hc         1 69J       0.007033
     30 H10          9.5770     0.7940     1.8160 hc         1 69J       0.007033
     31 H11          7.8320     2.4390    -0.3270 ha         1 69J       0.125000
     32 H12          5.4130     3.0130     0.5090 ho         1 69J       0.414000
@<TRIPOS>BOND
     1     1     2 1   
     2     2     3 1   
     3     2     4 1   
     4     4     5 ar  
     5     4     9 ar  
     6     5     6 ar  
     7     5    21 1   
     8     6     7 ar  
     9     6    22 1   
    10     7     8 ar  
    11     7    23 1   
    12     8     9 ar  
    13     8    24 1   
    14     9    10 1   
    15    10    11 1   
    16    11    12 ar  
    17    11    19 ar  
    18    12    13 ar  
    19    12    25 1   
    20    13    14 1   
    21    13    15 ar  
    22    15    16 1   
    23    15    18 ar  
    24    16    17 1   
    25    16    26 1   
    26    16    27 1   
    27    17    28 1   
    28    17    29 1   
    29    17    30 1   
    30    18    19 ar  
    31    18    31 1   
    32    19    20 1   
    33    20    32 1   
@<TRIPOS>SUBSTRUCTURE
     1 69J         1 TEMP              0 ****  ****    0 ROOT
