@<TRIPOS>MOLECULE
molecule
   32    33     1     0     0
SMALL
bcc


@<TRIPOS>ATOM
      1 OAH          0.0000     0.0000     0.0000 o          1 69J      -0.202500
      2 NAG          1.2190     0.0000     0.0000 no         1 69J       0.300200
      3 OAM          1.8270     0.0000     1.0550 o          1 69J      -0.202500
      4 CAF          1.9590    -0.0080    -1.2830 ca         1 69J      -0.184200
      5 CAL          1.2690    -0.0140    -2.4780 ca         1 69J      -0.040000
      6 CAQ          1.9600    -0.0210    -3.6770 ca         1 69J      -0.172000
      7 CAP          3.3420    -0.0200    -3.6800 ca         1 69J      -0.051000
      8 CAK          4.0370    -0.0150    -2.4860 ca         1 69J      -0.214000
      9 CAE          3.3470    -0.0020    -1.2830 ca         1 69J       0.202100
     10 OAD          4.0280     0.0040    -0.1070 os         1 69J      -0.198200
     11 CAC          5.3820     0.1080    -0.1550 ca         1 69J       0.088100
     12 CAJ          6.1680    -1.0340    -0.1370 ca         1 69J      -0.154000
     13 CAO          7.5470    -0.9260    -0.1870 ca         1 69J       0.126900
     14 FAS          8.3120    -2.0390    -0.1690 f          1 69J      -0.130900
     15 CAN          8.1430     0.3220    -0.2540 ca         1 69J      -0.091300
     16 CAR          9.6450     0.4360    -0.3020 c3         1 69J      -0.039100
     17 CAT         10.2140     0.2760     1.1090 c3         1 69J      -0.090100
     18 CAI          7.3640     1.4640    -0.2720 ca         1 69J      -0.149000
     19 CAB          5.9830     1.3610    -0.2290 ca         1 69J       0.098100
     20 OAA          5.2160     2.4850    -0.2470 oh         1 69J      -0.504100
     21 H1           0.1850    -0.0150    -2.4780 ha         1 69J       0.170000
     22 H2           1.4170    -0.0250    -4.6150 ha         1 69J       0.148000
     23 H3           3.8810    -0.0270    -4.6200 ha         1 69J       0.143000
     24 H4           5.1200    -0.0120    -2.4900 ha         1 69J       0.158000
     25 H5           5.7040    -2.0090    -0.0440 ha         1 69J       0.167000
     26 H6           9.9210     1.4070    -0.6940 hc         1 69J       0.056200
     27 H7          10.0460    -0.3400    -0.9430 hc         1 69J       0.056200
     28 H8          11.2120     0.6960     1.1460 hc         1 69J       0.041367
     29 H9          10.2550    -0.7760     1.3640 hc         1 69J       0.041367
     30 H10          9.5770     0.7940     1.8160 hc         1 69J       0.041367
     31 H11          7.8320     2.4390    -0.3270 ha         1 69J       0.153000
     32 H12          5.4130     3.0130     0.5090 ho         1 69J       0.431000
@<TRIPOS>BOND
     1    16    17 1   
     2    16    15 1   
     3    15    18 ar  
     4    15    13 ar  
     5    18    19 ar  
     6    14    13 1   
     7    13    12 ar  
     8    19    20 1   
     9    19    11 ar  
    10    12    11 ar  
    11    11    10 1   
    12    10     9 1   
    13     9     8 ar  
    14     9     4 ar  
    15     8     7 ar  
    16     1     2 1   
    17     7     6 ar  
    18     4     2 1   
    19     4     5 ar  
    20     2     3 1   
    21     6     5 ar  
    22     5    21 1   
    23     6    22 1   
    24     7    23 1   
    25     8    24 1   
    26    12    25 1   
    27    16    26 1   
    28    16    27 1   
    29    17    28 1   
    30    17    29 1   
    31    17    30 1   
    32    18    31 1   
    33    20    32 1   
@<TRIPOS>SUBSTRUCTURE
     1 69J         1 TEMP              0 ****  ****    0 ROOT
