@<TRIPOS>MOLECULE
molecule
   32    33     1     0     0
SMALL
bcc


@<TRIPOS>ATOM
      1 CAG          0.0000     0.0000     0.0000 c3         1 69K      -0.132400
      2 CAF          1.5070     0.0000     0.0000 ca         1 69K       0.411600
      3 NAK          2.1590     0.0000     1.1460 nb         1 69K      -0.662000
      4 CAO          3.4770     0.0010     1.1940 ca         1 69K       0.387200
      5 CAN          4.2300     0.0010     0.0350 ca         1 69K      -0.224300
      6 CAJ          3.5850     0.0020    -1.1910 ca         1 69K      -0.165000
      7 CAE          2.1940    -0.0050    -1.2060 ca         1 69K       0.018800
      8 OAD          1.5170    -0.0040    -2.3840 os         1 69K      -0.232200
      9 CAC          2.2370    -0.1080    -3.5340 ca         1 69K       0.099100
     10 CAI          2.6190     1.0340    -4.2190 ca         1 69K      -0.159000
     11 CAM          3.3510     0.9260    -5.3880 ca         1 69K       0.126900
     12 FAQ          3.7240     2.0400    -6.0560 f          1 69K      -0.133900
     13 CAL          3.7030    -0.3220    -5.8750 ca         1 69K      -0.096300
     14 CAP          4.4960    -0.4360    -7.1520 c3         1 69K      -0.037100
     15 CAR          3.5590    -0.2670    -8.3500 c3         1 69K      -0.090100
     16 CAH          3.3240    -1.4640    -5.1940 ca         1 69K      -0.149000
     17 CAB          2.5950    -1.3620    -4.0200 ca         1 69K       0.092100
     18 OAA          2.2220    -2.4850    -3.3500 oh         1 69K      -0.500100
     19 H1          -0.3610     0.8460    -0.5720 hc         1 69K       0.053367
     20 H2          -0.3610     0.0720     1.0190 hc         1 69K       0.053367
     21 H3          -0.3610    -0.9180    -0.4470 hc         1 69K       0.053367
     22 H4           3.9760     0.0000     2.1560 h4         1 69K       0.024100
     23 H5           5.3120     0.0040     0.0850 ha         1 69K       0.139000
     24 H6           4.1500     0.0010    -2.1150 ha         1 69K       0.148000
     25 H7           2.3030     2.0080    -3.8670 ha         1 69K       0.165000
     26 H8           5.2550     0.3360    -7.1760 hc         1 69K       0.055700
     27 H9           4.9690    -1.4090    -7.1980 hc         1 69K       0.055700
     28 H10          4.0330    -0.6660    -9.2390 hc         1 69K       0.040367
     29 H11          2.6350    -0.8010    -8.1640 hc         1 69K       0.040367
     30 H12          3.3450     0.7840    -8.4960 hc         1 69K       0.040367
     31 H13          3.6010    -2.4390    -5.5750 ha         1 69K       0.150000
     32 H14          1.6660    -3.0100    -3.9010 ho         1 69K       0.425000
@<TRIPOS>BOND
     1    14    15 1
     2    14    13 1
     3    13    16 ar
     4    13    11 ar
     5    16    17 ar
     6    12    11 1
     7    11    10 ar
     8    17    18 1
     9    17     9 ar
    10    10     9 ar
    11     9     8 1
    12     8     7 1
    13     6     7 ar
    14     6     5 ar
    15     7     2 ar
    16     5     4 ar
    17     2     1 1
    18     2     3 ar
    19     4     3 ar
    20     1    19 1
    21     1    20 1
    22     1    21 1
    23     4    22 1
    24     5    23 1
    25     6    24 1
    26    10    25 1
    27    14    26 1
    28    14    27 1
    29    15    28 1
    30    15    29 1
    31    15    30 1
    32    16    31 1
    33    18    32 1
@<TRIPOS>SUBSTRUCTURE
     1 69K         1 TEMP              0 ****  ****    0 ROOT
