@<TRIPOS>MOLECULE
molecule
   44    47     1     0     0
SMALL
bcc


@<TRIPOS>ATOM
      1 C2           0.0000     0.0000     0.0000 ca         1 69M      -0.160000
      2 C4           0.0050     0.0100     2.4000 ca         1 69M      -0.125500
      3 C5           1.3990     0.0120     2.3970 ca         1 69M      -0.090000
      4 C6           2.0840     0.0000     1.2010 ca         1 69M      -0.160000
      5 C8          -1.9660     0.6820     3.9310 cc         1 69M      -0.336300
      6 C9          -2.2990     0.4420     5.2520 cd         1 69M       0.213300
      7 C12         -2.7460     1.4820     2.9590 ca         1 69M       0.009000
      8 C13         -2.2140     2.6650     2.4430 ca         1 69M      -0.114000
      9 C14         -2.9400     3.4130     1.5360 ca         1 69M      -0.129000
     10 C15         -4.1930     2.9940     1.1340 ca         1 69M      -0.125000
     11 C1           1.3890     0.0000     0.0000 ca         1 69M       0.108100
     12 C3          -0.6920     0.0050     1.1930 ca         1 69M      -0.090000
     13 O1           2.0670     0.0010    -1.1770 oh         1 69M      -0.524100
     14 C7          -0.7350     0.0220     3.6850 cc         1 69M       0.440800
     15 N10         -1.3250    -0.3290     5.7830 na         1 69M      -0.070600
     16 N11         -0.3670    -0.5770     4.7950 nd         1 69M      -0.521800
     17 C16         -4.7340     1.8140     1.6420 cp         1 69M      -0.040000
     18 C17         -4.0060     1.0540     2.5520 ca         1 69M      -0.124000
     19 C18         -6.0810     1.3670     1.2090 cp         1 69M      -0.022000
     20 C19         -6.8050     2.1200     0.2900 ca         1 69M      -0.149000
     21 C20         -8.0630     1.6970    -0.1100 ca         1 69M       0.172600
     22 C21         -8.5970     0.5210     0.4060 ca         1 69M      -0.157000
     23 C22         -7.8770    -0.2270     1.3170 ca         1 69M      -0.116000
     24 C23         -6.6220     0.1870     1.7170 ca         1 69M      -0.140000
     25 N25         -8.7940     2.4510    -1.0320 nv         1 69M      -0.978200
     26 H1          -0.5410    -0.0020    -0.9390 ha         1 69M       0.141000
     27 H2           1.9440     0.0140     3.3340 ha         1 69M       0.148000
     28 H3           3.1680     0.0010     1.1990 ha         1 69M       0.141000
     29 H4          -1.2320     2.9980     2.7550 ha         1 69M       0.140000
     30 H5          -2.5240     4.3310     1.1380 ha         1 69M       0.131000
     31 H6          -4.7580     3.5860     0.4240 ha         1 69M       0.132000
     32 H7          -1.7750     0.0040     1.1920 ha         1 69M       0.148000
     33 H8           2.2090    -0.8870    -1.4590 ho         1 69M       0.419000
     34 H9          -1.2940    -0.6660     6.7250 hn         1 69M       0.326700
     35 H10         -4.4220     0.1360     2.9500 ha         1 69M       0.138000
     36 H11         -6.3870     3.0360    -0.1100 ha         1 69M       0.138000
     37 H12         -9.5810     0.1920     0.0940 ha         1 69M       0.133000
     38 H13         -8.2960    -1.1430     1.7150 ha         1 69M       0.129000
     39 H14         -6.0600    -0.4020     2.4320 ha         1 69M       0.132000
     40 H15         -3.6850     0.5260     6.7990 hn         1 69M       0.443800
     41 H16         -3.9810     1.6380     5.5020 hn         1 69M       0.443800
     42 H17         -8.9940     2.0770    -1.9380 hn         1 69M       0.427800
     43 H18         -9.1150     3.3670    -0.7870 hn         1 69M       0.427800
     44 N24         -3.4290     0.9100     5.9110 nv         1 69M      -0.913200
@<TRIPOS>BOND
     1    44     6 1
     2     8     9 ar
     3     8     7 ar
     4    15     6 1
     5    15    16 1
     6     6     5 2
     7     9    10 ar
     8    16    14 2
     9     5     7 1
    10     5    14 1
    11     7    18 ar
    12    14     2 1
    13    12     2 ar
    14    12     1 ar
    15    10    17 ar
    16     2     3 ar
    17     1    11 ar
    18    18    17 ar
    19    17    19 1
    20     3     4 ar
    21    11     4 ar
    22    11    13 1
    23    19    24 ar
    24    19    20 ar
    25    24    23 ar
    26    20    21 ar
    27    23    22 ar
    28    21    22 ar
    29    21    25 1
    30     1    26 1
    31     3    27 1
    32     4    28 1
    33     8    29 1
    34     9    30 1
    35    10    31 1
    36    12    32 1
    37    13    33 1
    38    15    34 1
    39    18    35 1
    40    20    36 1
    41    22    37 1
    42    23    38 1
    43    24    39 1
    44    44    40 1
    45    44    41 1
    46    25    42 1
    47    25    43 1
@<TRIPOS>SUBSTRUCTURE
     1 69M         1 TEMP              0 ****  ****    0 ROOT
