@<TRIPOS>MOLECULE
molecule
   15    14     1     0     0
SMALL
bcc


@<TRIPOS>ATOM
      1 C01          0.0000     0.0000     0.0000 c3         1 69O      -0.093100
      2 C02          1.5300     0.0000     0.0000 c3         1 69O      -0.079400
      3 C03          2.0410     0.0000     1.4430 c3         1 69O      -0.187400
      4 C04          3.5480    -0.0000     1.4410 c          1 69O       0.473100
      5 O05          4.1510    -0.0000     0.3960 o          1 69O      -0.551100
      6 C06          4.2930    -0.0000     2.7320 c          1 69O       0.804600
      7 O07          3.6870     0.0000     3.7830 o          1 69O      -0.817300
      8 O08          5.6390    -0.0000     2.7320 o          1 69O      -0.817300
      9 H013        -0.3610    -0.0000    -1.0210 hc         1 69O       0.020700
     10 H012        -0.3610    -0.8850     0.5110 hc         1 69O       0.020700
     11 H011        -0.3610     0.8850     0.5110 hc         1 69O       0.020700
     12 H022         1.8910    -0.8850    -0.5110 hc         1 69O       0.042700
     13 H021         1.8910     0.8850    -0.5110 hc         1 69O       0.042700
     14 H031         1.6800     0.8850     1.9540 hc         1 69O       0.059700
     15 H032         1.6800    -0.8850     1.9540 hc         1 69O       0.059700
@<TRIPOS>BOND
     1     5     4 2   
     2     7     6 1   
     3     4     6 1   
     4     4     3 1   
     5     6     8 1   
     6     1     2 1   
     7     3     2 1   
     8     1     9 1   
     9     1    10 1   
    10     1    11 1   
    11     2    12 1   
    12     2    13 1   
    13     3    14 1   
    14     3    15 1   
@<TRIPOS>SUBSTRUCTURE
     1 69O         1 TEMP              0 ****  ****    0 ROOT
