@<TRIPOS>MOLECULE
69P
   27    29     1     0     0
SMALL
bcc


@<TRIPOS>ATOM
      1 N1           0.0000     0.0000     0.0000 nb         1 69P      -0.706000
      2 C2           1.3200     0.0000     0.0000 ca         1 69P       0.668900
      3 N3           2.0260     0.0000     1.1110 nb         1 69P      -0.648000
      4 C4           1.4250    -0.0000     2.2960 ca         1 69P       0.228800
      5 C5           0.0210     0.0000     2.3500 ca         1 69P      -0.200200
      6 C6          -0.6890    -0.0000     1.1370 ca         1 69P       0.592200
      7 N6          -2.0730     0.0000     1.1260 nh         1 69P      -0.441300
      8 N7          -0.3290    -0.0000     3.6590 nc         1 69P      -0.483100
      9 C8           0.7450    -0.0000     4.3930 cd         1 69P       0.228700
     10 N9           1.8520     0.0010     3.6000 na         1 69P       0.176000
     11 CBV         -4.1180    -0.0790    -0.2180 c3         1 69P       0.144300
     12 CBW         -4.1330     1.0610     1.9180 c3         1 69P       0.144300
     13 CBX         -2.5900     0.0010    -0.2490 c3         1 69P       0.133300
     14 CBY         -2.6040     1.1410     1.8860 c3         1 69P       0.133300
     15 NDM         -4.6490     1.0610     0.5410 n7         1 69P      -0.587200
     16 H2           1.8420     0.0000    -0.9500 h5         1 69P      -0.000900
     17 H8           0.7570    -0.0000     5.4760 h5         1 69P       0.031800
     18 HN9          2.8040     0.0010     3.9110 hn         1 69P       0.134700
     19 HBV         -4.5010    -0.0480    -1.2310 h1         1 69P       0.012950
     20 HBVA        -4.4200    -1.0030     0.2600 h1         1 69P       0.012950
     21 HBW         -4.4350     0.1480     2.4160 h1         1 69P       0.012950
     22 HBWA        -4.5270     1.9180     2.4510 h1         1 69P       0.012950
     23 HBX         -2.2870     0.9140    -0.7480 h1         1 69P       0.035700
     24 HBXA        -2.1950    -0.8560    -0.7820 h1         1 69P       0.035700
     25 HBY         -2.2210     1.1100     2.8980 h1         1 69P       0.035700
     26 HBYA        -2.3020     2.0640     1.4070 h1         1 69P       0.035700
     27 HNDM        -5.6490     1.0130     0.5600 hn         1 69P       0.253800
@<TRIPOS>BOND
     1     1     2 ar  
     2     1     6 ar  
     3     2     3 ar  
     4     2    16 1   
     5     3     4 ar  
     6     4     5 ar  
     7     4    10 1   
     8     5     6 ar  
     9     5     8 1   
    10     6     7 1   
    11     7    13 1   
    12     7    14 1   
    13     8     9 2   
    14     9    10 1   
    15     9    17 1   
    16    10    18 1   
    17    11    13 1   
    18    11    15 1   
    19    11    19 1   
    20    11    20 1   
    21    12    14 1   
    22    12    15 1   
    23    12    21 1   
    24    12    22 1   
    25    13    23 1   
    26    13    24 1   
    27    14    25 1   
    28    14    26 1   
    29    15    27 1   
@<TRIPOS>SUBSTRUCTURE
     1 69P         1 TEMP              0 ****  ****    0 ROOT
