@<TRIPOS>MOLECULE
69Q
   50    52     1     0     0
SMALL
bcc


@<TRIPOS>ATOM
      1 C13          0.0000     0.0000     0.0000 ca         1 69Q       0.243600
      2 C15          1.3850     0.0000     0.0000 ca         1 69Q      -0.144300
      3 C17         -0.6950    -0.5140     9.4280 ca         1 69Q      -0.203300
      4 C20         -2.9990     0.9400     9.4480 ca         1 69Q       0.413200
      5 C21         -2.2790     0.8600     8.2740 ca         1 69Q      -0.206300
      6 C22         -6.5770    -0.0440     5.4170 c3         1 69Q       0.148800
      7 C24         -6.8910     1.1310     4.4890 c3         1 69Q      -0.034100
      8 C26         -0.7430    -0.0000    -1.3110 c3         1 69Q       0.541600
      9 C01         -0.8680    -0.0110     3.5540 cp         1 69Q       0.659000
     10 N02         -2.1960    -0.0220     3.4880 nb         1 69Q      -0.729000
     11 N03         -0.2610    -0.0070     4.7360 nb         1 69Q      -0.784000
     12 C04         -0.9810    -0.0070     5.8530 ca         1 69Q       0.765900
     13 C05         -2.9160    -0.0220     4.6060 ca         1 69Q       0.771900
     14 N06         -2.3090    -0.0120     5.7880 nb         1 69Q      -0.811000
     15 C07         -0.0640    -0.0110     2.3070 cp         1 69Q       0.294300
     16 N08         -0.3510    -0.0030     7.0830 nu         1 69Q      -0.271300
     17 N09         -4.2950    -0.0320     4.5380 nu         1 69Q      -0.446900
     18 N10         -0.6760    -0.0060     1.1290 nb         1 69Q      -0.455000
     19 C11          1.3260    -0.0000     2.3820 ca         1 69Q      -0.137300
     20 C12         -5.0890    -0.0320     5.7700 c3         1 69Q       0.161800
     21 C14          2.0650     0.0000     1.2080 ca         1 69Q      -0.091000
     22 C16         -1.1010     0.1130     8.2510 ca         1 69Q       0.030600
     23 C18         -1.4680    -0.3790    10.5620 ca         1 69Q       0.283600
     24 N19         -2.5800     0.3320    10.5410 nb         1 69Q      -0.537000
     25 C23         -7.4060     0.0810     6.6960 c3         1 69Q      -0.034100
     26 O25         -6.9010    -1.2710     4.7580 oh         1 69Q      -0.588800
     27 F27         -0.9720    -1.3200    -1.7170 f          1 69Q      -0.203633
     28 F28         -1.9660     0.6580    -1.1540 f          1 69Q      -0.203633
     29 F29          0.0210     0.6590    -2.2800 f          1 69Q      -0.203633
     30 C30         -1.0390    -1.0530    11.8410 c3         1 69Q       0.540600
     31 F31         -0.2240    -0.1830    12.5730 f          1 69Q      -0.203967
     32 F32         -2.1690    -1.3820    12.5970 f          1 69Q      -0.203967
     33 F33         -0.3260    -2.2170    11.5370 f          1 69Q      -0.203967
     34 H1           1.9320     0.0000    -0.9350 ha         1 69Q       0.127000
     35 H2           0.2150    -1.1010     9.4510 ha         1 69Q       0.131000
     36 H3          -3.9160     1.5160     9.4740 h4         1 69Q      -0.014900
     37 H4          -2.6290     1.3620     7.3800 ha         1 69Q       0.149000
     38 H5          -6.3360     2.0040     4.8110 hc         1 69Q       0.016533
     39 H6          -6.6070     0.8760     3.4750 hc         1 69Q       0.016533
     40 H7          -7.9520     1.3450     4.5240 hc         1 69Q       0.016533
     41 H8           0.6470    -0.0670     7.1330 hn         1 69Q       0.298800
     42 H9          -4.7510    -0.0910     3.6490 hn         1 69Q       0.320800
     43 H10          1.8250    -0.0000     3.3440 ha         1 69Q       0.136000
     44 H11         -4.8490    -0.9130     6.3530 h1         1 69Q       0.034700
     45 H12         -4.8610     0.8560     6.3460 h1         1 69Q       0.034700
     46 H13          3.1480     0.0040     1.2350 ha         1 69Q       0.119000
     47 H14         -7.1880    -0.7550     7.3510 hc         1 69Q       0.016533
     48 H15         -7.1560     1.0080     7.1990 hc         1 69Q       0.016533
     49 H16         -8.4600     0.0790     6.4460 hc         1 69Q       0.016533
     50 H17         -7.8380    -1.3670     4.7160 ho         1 69Q       0.402000
@<TRIPOS>BOND
     1     1     2 ar  
     2     1     8 1   
     3     1    18 ar  
     4     2    21 ar  
     5     2    34 1   
     6     3    22 ar  
     7     3    23 ar  
     8     3    35 1   
     9     4     5 ar  
    10     4    24 ar  
    11     4    36 1   
    12     5    22 ar  
    13     5    37 1   
    14     6     7 1   
    15     6    20 1   
    16     6    25 1   
    17     6    26 1   
    18     7    38 1   
    19     7    39 1   
    20     7    40 1   
    21     8    27 1   
    22     8    28 1   
    23     8    29 1   
    24     9    10 ar  
    25     9    11 ar  
    26     9    15 1   
    27    10    13 ar  
    28    11    12 ar  
    29    12    14 ar  
    30    12    16 1   
    31    13    14 ar  
    32    13    17 1   
    33    15    18 ar  
    34    15    19 ar  
    35    16    22 1   
    36    16    41 1   
    37    17    20 1   
    38    17    42 1   
    39    19    21 ar  
    40    19    43 1   
    41    20    44 1   
    42    20    45 1   
    43    21    46 1   
    44    23    24 ar  
    45    23    30 1   
    46    25    47 1   
    47    25    48 1   
    48    25    49 1   
    49    26    50 1   
    50    30    31 1   
    51    30    32 1   
    52    30    33 1   
@<TRIPOS>SUBSTRUCTURE
     1 69Q         1 TEMP              0 ****  ****    0 ROOT
