@<TRIPOS>MOLECULE
69R
   43    46     1     0     0
SMALL
bcc


@<TRIPOS>ATOM
      1 C2           0.0000     0.0000     0.0000 cc         1 69R       0.479800
      2 C7          -0.8710     0.0000    -1.2000 ca         1 69R      -0.132500
      3 C9          -1.2960     0.6960    -3.4580 ca         1 69R      -0.145000
      4 C11         -2.8890    -0.6900    -2.3030 ca         1 69R      -0.145000
      5 C12         -2.0810    -0.6920    -1.1860 ca         1 69R      -0.064500
      6 C16          3.1010    -1.0790    -3.1820 ca         1 69R      -0.138500
      7 C19          3.1200     1.0940    -1.4540 ca         1 69R      -0.086000
      8 C22          3.4180    -0.0090     3.2110 c3         1 69R       0.164500
      9 C26          6.9330    -0.7240     3.6690 cc         1 69R       0.210400
     10 C3           1.4170     0.0000     0.0000 cc         1 69R      -0.345300
     11 C4           1.8270     0.0000     1.3200 cd         1 69R      -0.083700
     12 N5           0.7100    -0.0000     2.0910 na         1 69R       0.406400
     13 N6          -0.4090     0.0050     1.2500 nd         1 69R      -0.681800
     14 C8          -0.4850     0.6980    -2.3430 ca         1 69R      -0.064500
     15 C10         -2.4980     0.0010    -3.4420 ca         1 69R       0.123100
     16 O13         -3.2940    -0.0020    -4.5440 oh         1 69R      -0.503100
     17 C14          2.2950     0.0000    -1.1950 ca         1 69R       0.018000
     18 C15          2.2870    -1.0860    -2.0690 ca         1 69R      -0.086000
     19 C17          3.9290     0.0070    -3.4330 ca         1 69R       0.112100
     20 C18          3.9370     1.0920    -2.5660 ca         1 69R      -0.138500
     21 O20          4.7350     0.0070    -4.5270 oh         1 69R      -0.501100
     22 N21          3.1400    -0.0030     1.7720 nu         1 69R      -0.407600
     23 C23          4.9090    -0.0120     3.4350 cd         1 69R       0.263600
     24 C24          5.6790     1.0710     3.6490 cc         1 69R      -0.420600
     25 N25          6.9630     0.6200     3.8000 na         1 69R       0.254100
     26 N27          5.7010    -1.0950     3.4460 nd         1 69R      -0.597000
     27 H1          -0.9950     1.2360    -4.3480 ha         1 69R       0.113500
     28 H2          -3.8290    -1.2290    -2.2930 ha         1 69R       0.113500
     29 H3          -2.3860    -1.2310    -0.2970 ha         1 69R       0.118500
     30 H4           3.0960    -1.9240    -3.8600 ha         1 69R       0.112000
     31 H5           3.1270     1.9410    -0.7790 ha         1 69R       0.111000
     32 H6           2.9830    -0.8940     3.6600 h1         1 69R       0.011200
     33 H7           2.9860     0.8750     3.6660 h1         1 69R       0.011200
     34 H9           0.6900     0.0010     3.0910 hn         1 69R       0.149700
     35 H10          0.4530     1.2400    -2.3560 ha         1 69R       0.118500
     36 H11         -3.8950     0.7230    -4.5000 ho         1 69R       0.401000
     37 H12          1.6440    -1.9350    -1.8720 ha         1 69R       0.111000
     38 H13          4.5810     1.9400    -2.7670 ha         1 69R       0.112000
     39 H14          5.5680    -0.3760    -4.3050 ho         1 69R       0.399000
     40 H15          3.8950    -0.0540     1.1170 hn         1 69R       0.316800
     41 H16          5.3460     2.1010     3.6960 h4         1 69R       0.157000
     42 H17          7.7730     1.1810     3.9750 hn         1 69R       0.123700
     43 H8           7.7890    -1.3840     3.7340 h5         1 69R       0.026100
@<TRIPOS>BOND
     1     1     2 1   
     2     1    10 1   
     3     1    13 2   
     4     2     5 ar  
     5     2    14 ar  
     6     3    14 ar  
     7     3    15 ar  
     8     3    27 1   
     9     4     5 ar  
    10     4    15 ar  
    11     4    28 1   
    12     5    29 1   
    13     6    18 ar  
    14     6    19 ar  
    15     6    30 1   
    16     7    17 ar  
    17     7    20 ar  
    18     7    31 1   
    19     8    22 1   
    20     8    23 1   
    21     8    32 1   
    22     8    33 1   
    23     9    25 1   
    24     9    26 2   
    25     9    43 1   
    26    10    11 2   
    27    10    17 1   
    28    11    12 1   
    29    11    22 1   
    30    12    13 1   
    31    12    34 1   
    32    14    35 1   
    33    15    16 1   
    34    16    36 1   
    35    17    18 ar  
    36    18    37 1   
    37    19    20 ar  
    38    19    21 1   
    39    20    38 1   
    40    21    39 1   
    41    22    40 1   
    42    23    24 2   
    43    23    26 1   
    44    24    25 1   
    45    24    41 1   
    46    25    42 1   
@<TRIPOS>SUBSTRUCTURE
     1 69R         1 TEMP              0 ****  ****    0 ROOT
