@<TRIPOS>MOLECULE
molecule
   45    48     1     0     0
SMALL
bcc


@<TRIPOS>ATOM
      1 C2           0.0000     0.0000     0.0000 ca         1 69S      -0.125500
      2 C3           1.3940     0.0000     0.0000 ca         1 69S      -0.089500
      3 C4           2.0820     0.0000     1.1960 ca         1 69S      -0.159500
      4 C5           1.3870     0.0000     2.3990 ca         1 69S       0.109100
      5 C6          -0.0010     0.0010     2.4010 ca         1 69S      -0.159500
      6 C7          -0.6940     0.0010     1.2090 ca         1 69S      -0.089500
      7 C20          1.7640    -1.3850    -3.4650 ca         1 69S      -0.102000
      8 C21          3.9340    -1.9600    -4.5440 cp         1 69S      -0.030000
      9 C24          5.9910    -1.3930    -6.3160 ca         1 69S      -0.144000
     10 C25          4.6770    -1.3150    -6.7370 ca         1 69S      -0.129000
     11 C9          -0.7420     0.0050    -1.2840 cc         1 69S       0.440800
     12 C10         -0.4140    -0.7490    -2.4380 cc         1 69S      -0.337300
     13 C11         -1.3570    -0.4510    -3.4030 cd         1 69S       0.214300
     14 C15          0.7290    -1.6820    -2.5830 ca         1 69S      -0.010000
     15 C16          0.7660    -2.8600    -1.8350 ca         1 69S      -0.090000
     16 C17          1.8280    -3.7310    -1.9680 ca         1 69S      -0.194000
     17 C19          2.8300    -2.2670    -3.6020 cp         1 69S      -0.060000
     18 C22          5.2580    -2.0400    -4.1190 ca         1 69S      -0.112000
     19 C23          6.2850    -1.7560    -5.0070 ca         1 69S       0.160600
     20 N1           7.6150    -1.8360    -4.5850 nv         1 69S      -0.989200
     21 O8           2.0670     0.0000     3.5740 oh         1 69S      -0.523100
     22 N12         -2.2230     0.4450    -2.8630 na         1 69S      -0.075600
     23 N13         -1.8220     0.7060    -1.5470 nd         1 69S      -0.515800
     24 N14         -1.4100    -0.9710    -4.6900 nv         1 69S      -0.910200
     25 C18          2.8630    -3.4430    -2.8440 ca         1 69S       0.121100
     26 C26          3.6490    -1.5940    -5.8590 ca         1 69S      -0.129000
     27 H1           1.9370    -0.0000    -0.9380 ha         1 69S       0.146500
     28 H2           3.1650    -0.0000     1.1980 ha         1 69S       0.141000
     29 H3          -0.5410     0.0020     3.3410 ha         1 69S       0.141000
     30 H4          -1.7780     0.0010     1.2110 ha         1 69S       0.146500
     31 H5           1.7800    -0.4320    -3.9790 ha         1 69S       0.146000
     32 H6           6.7950    -1.1720    -7.0080 ha         1 69S       0.133000
     33 H7           4.4530    -1.0310    -7.7580 ha         1 69S       0.127000
     34 H8          -0.0390    -3.0910    -1.1490 ha         1 69S       0.141000
     35 H9           1.8540    -4.6430    -1.3840 ha         1 69S       0.134000
     36 H10          5.4850    -2.3230    -3.0980 ha         1 69S       0.149000
     37 H11          8.0310    -1.0680    -4.0960 hn         1 69S       0.426800
     38 H12          8.1510    -2.6590    -4.7740 hn         1 69S       0.426800
     39 H13          3.5770    -5.1800    -3.0870 ho         1 69S       0.419000
     40 H14          2.2280    -0.8890     3.8440 ho         1 69S       0.418000
     41 H15         -3.0150     0.8460    -3.3250 hn         1 69S       0.327700
     42 H16         -2.0950    -0.6350    -5.3380 hn         1 69S       0.443300
     43 H17         -0.7860    -1.7060    -4.9590 hn         1 69S       0.443300
     44 H18          2.6200    -1.5320    -6.1920 ha         1 69S       0.126000
     45 O27          3.9050    -4.3040    -2.9720 oh         1 69S      -0.505100
@<TRIPOS>BOND
     1    16    15 ar
     2    16    25 ar
     3    15    14 ar
     4    45    25 1
     5    25    17 ar
     6    14    12 1
     7    14     7 ar
     8    24    13 1
     9    12    13 2
    10    12    11 1
    11    13    22 1
    12    11     1 1
    13    11    23 2
    14    17     7 ar
    15    17     8 1
    16     1     2 ar
    17     1     6 ar
    18     2     3 ar
    19     6     5 ar
    20     3     4 ar
    21     5     4 ar
    22    22    23 1
    23     4    21 1
    24     8    26 ar
    25     8    18 ar
    26    26    10 ar
    27    18    19 ar
    28    10     9 ar
    29    19     9 ar
    30    19    20 1
    31     2    27 1
    32     3    28 1
    33     5    29 1
    34     6    30 1
    35     7    31 1
    36     9    32 1
    37    10    33 1
    38    15    34 1
    39    16    35 1
    40    18    36 1
    41    20    37 1
    42    20    38 1
    43    45    39 1
    44    21    40 1
    45    22    41 1
    46    24    42 1
    47    24    43 1
    48    26    44 1
@<TRIPOS>SUBSTRUCTURE
     1 69S         1 TEMP              0 ****  ****    0 ROOT
