@<TRIPOS>MOLECULE
molecule
   33    35     1     0     0
SMALL
bcc


@<TRIPOS>ATOM
      1 C1           0.0000     0.0000     0.0000 ca         1 69T       0.155600
      2 C2           1.3880     0.0000     0.0000 ca         1 69T      -0.172000
      3 C3           2.0780     0.0000     1.1960 ca         1 69T      -0.117500
      4 C4           1.3850    -0.0010     2.3970 ca         1 69T       0.077100
      5 C5          -0.0020    -0.0000     2.3980 ca         1 69T      -0.117500
      6 C6          -0.6940     0.0010     1.2020 ca         1 69T      -0.172000
      7 C11          0.1280    -1.4530    -4.3860 cc         1 69T       0.422800
      8 C12         -0.6910    -0.6420    -3.5790 cc         1 69T      -0.397300
      9 C13         -0.0570    -1.7070    -5.8370 ca         1 69T      -0.122500
     10 C15         -1.2950    -1.3630    -7.8650 ca         1 69T      -0.158000
     11 C18          0.8320    -2.5350    -6.5200 ca         1 69T      -0.093000
     12 N1          -0.7000     0.0060    -1.2120 nu         1 69T      -0.671000
     13 O7           2.0660    -0.0010     3.5750 oh         1 69T      -0.518100
     14 C8          -0.1850    -0.6660    -2.3170 cd         1 69T       0.188300
     15 N9           0.9160    -1.4640    -2.3290 na         1 69T      -0.071600
     16 N10          1.0900    -1.9430    -3.6330 nd         1 69T      -0.515800
     17 C14         -1.1230    -1.1220    -6.5170 ca         1 69T      -0.093000
     18 C16         -0.4020    -2.1800    -8.5440 ca         1 69T       0.109100
     19 C17          0.6570    -2.7690    -7.8680 ca         1 69T      -0.158000
     20 H1           1.9300     0.0000    -0.9380 ha         1 69T       0.143500
     21 H2           3.1620    -0.0000     1.1960 ha         1 69T       0.146000
     22 H3          -0.5430    -0.0000     3.3370 ha         1 69T       0.146000
     23 H4          -1.7770     0.0010     1.2030 ha         1 69T       0.143500
     24 H5          -1.6130    -0.1620    -3.8870 ha         1 69T       0.155000
     25 H6          -2.1240    -0.9090    -8.3940 ha         1 69T       0.141500
     26 H7           1.6590    -2.9950    -5.9930 ha         1 69T       0.144000
     27 H8          -0.1070    -1.7660   -10.3690 ho         1 69T       0.419000
     28 H9          -1.5620     0.5080    -1.2900 hn         1 69T       0.468800
     29 H10          2.2230    -0.8890     3.8470 ho         1 69T       0.418000
     30 H11          1.5000    -1.6720    -1.5430 hn         1 69T       0.337700
     31 H12         -1.8200    -0.4840    -5.9870 ha         1 69T       0.144000
     32 H13          1.3500    -3.4090    -8.4000 ha         1 69T       0.141500
     33 O19         -0.5740    -2.4160    -9.8710 oh         1 69T      -0.523100
@<TRIPOS>BOND
     1    33    18 1
     2    10    18 ar
     3    10    17 ar
     4    18    19 ar
     5    17     9 ar
     6    19    11 ar
     7     9    11 ar
     8     9     7 1
     9     7     8 1
    10     7    16 2
    11     8    14 2
    12    16    15 1
    13    14    15 1
    14    14    12 1
    15     2     3 ar
    16     2     1 ar
    17    12     1 1
    18     3     4 ar
    19     1     6 ar
    20     4    13 1
    21     4     5 ar
    22     6     5 ar
    23     2    20 1
    24     3    21 1
    25     5    22 1
    26     6    23 1
    27     8    24 1
    28    10    25 1
    29    11    26 1
    30    33    27 1
    31    12    28 1
    32    13    29 1
    33    15    30 1
    34    17    31 1
    35    19    32 1
@<TRIPOS>SUBSTRUCTURE
     1 69T         1 TEMP              0 ****  ****    0 ROOT
