@<TRIPOS>MOLECULE
69T
   33    35     1     0     0
SMALL
bcc


@<TRIPOS>ATOM
      1 C1           0.0000     0.0000     0.0000 ca         1 69T      -0.008400
      2 C2           1.3880     0.0000     0.0000 ca         1 69T      -0.142500
      3 C3           2.0780     0.0000     1.1960 ca         1 69T      -0.096500
      4 C4           1.3850    -0.0010     2.3970 ca         1 69T       0.097100
      5 C5          -0.0020    -0.0000     2.3980 ca         1 69T      -0.096500
      6 C6          -0.6940     0.0010     1.2020 ca         1 69T      -0.142500
      7 C11          0.1280    -1.4530    -4.3860 cc         1 69T       0.459800
      8 C12         -0.6910    -0.6420    -3.5790 cc         1 69T      -0.386300
      9 C13         -0.0570    -1.7070    -5.8370 ca         1 69T      -0.133500
     10 C15         -1.2950    -1.3630    -7.8650 ca         1 69T      -0.145000
     11 C18          0.8320    -2.5350    -6.5200 ca         1 69T      -0.062500
     12 N1          -0.7000     0.0060    -1.2120 nu         1 69T      -0.198000
     13 O7           2.0660    -0.0010     3.5750 oh         1 69T      -0.497100
     14 C8          -0.1850    -0.6660    -2.3170 cd         1 69T      -0.124700
     15 N9           0.9160    -1.4640    -2.3290 na         1 69T       0.394400
     16 N10          1.0900    -1.9430    -3.6330 nd         1 69T      -0.666800
     17 C14         -1.1230    -1.1220    -6.5170 ca         1 69T      -0.062500
     18 C16         -0.4020    -2.1800    -8.5440 ca         1 69T       0.126100
     19 C17          0.6570    -2.7690    -7.8680 ca         1 69T      -0.145000
     20 H1           1.9300     0.0000    -0.9380 ha         1 69T       0.116500
     21 H2           3.1620    -0.0000     1.1960 ha         1 69T       0.115500
     22 H3          -0.5430    -0.0000     3.3370 ha         1 69T       0.115500
     23 H4          -1.7770     0.0010     1.2030 ha         1 69T       0.116500
     24 H5          -1.6130    -0.1620    -3.8870 ha         1 69T       0.141000
     25 H6          -2.1240    -0.9090    -8.3940 ha         1 69T       0.113500
     26 H7           1.6590    -2.9950    -5.9930 ha         1 69T       0.115500
     27 H8          -0.1070    -1.7660   -10.3690 ho         1 69T       0.402000
     28 H9          -1.5620     0.5080    -1.2900 hn         1 69T       0.296800
     29 H10          2.2230    -0.8890     3.8470 ho         1 69T       0.402000
     30 H11          1.5000    -1.6720    -1.5430 hn         1 69T       0.168700
     31 H12         -1.8200    -0.4840    -5.9870 ha         1 69T       0.115500
     32 H13          1.3500    -3.4090    -8.4000 ha         1 69T       0.113500
     33 O19         -0.5740    -2.4160    -9.8710 oh         1 69T      -0.502100
@<TRIPOS>BOND
     1     1     2 ar  
     2     1     6 ar  
     3     1    12 1   
     4     2     3 ar  
     5     2    20 1   
     6     3     4 ar  
     7     3    21 1   
     8     4     5 ar  
     9     4    13 1   
    10     5     6 ar  
    11     5    22 1   
    12     6    23 1   
    13     7     8 1   
    14     7     9 1   
    15     7    16 2   
    16     8    14 2   
    17     8    24 1   
    18     9    11 ar  
    19     9    17 ar  
    20    10    17 ar  
    21    10    18 ar  
    22    10    25 1   
    23    11    19 ar  
    24    11    26 1   
    25    12    14 1   
    26    12    28 1   
    27    13    29 1   
    28    14    15 1   
    29    15    16 1   
    30    15    30 1   
    31    17    31 1   
    32    18    19 ar  
    33    18    33 1   
    34    19    32 1   
    35    27    33 1   
@<TRIPOS>SUBSTRUCTURE
     1 69T         1 TEMP              0 ****  ****    0 ROOT
