@<TRIPOS>MOLECULE
molecule
   47    50     1     0     0
SMALL
bcc


@<TRIPOS>ATOM
      1 C1           0.0000     0.0000     0.0000 c3         1 69U       0.281100
      2 C5           4.2730     0.0000     0.0000 ca         1 69U       0.118100
      3 C6           3.5780     0.0000     1.2010 ca         1 69U      -0.155000
      4 C7           2.1970    -0.0000     1.1980 ca         1 69U      -0.096000
      5 C10         -1.8540     1.6350    -0.0000 cc         1 69U       0.215300
      6 C16         -4.6820     4.9120     0.7190 ca         1 69U      -0.090000
      7 C17         -5.6500     5.8940     0.7230 ca         1 69U      -0.159000
      8 C18         -6.8390     5.7010     0.0320 ca         1 69U       0.109100
      9 C19         -7.0570     4.5210    -0.6650 ca         1 69U      -0.159000
     10 C20         -6.0930     3.5360    -0.6740 ca         1 69U      -0.090000
     11 C21         -1.7620     4.1910     0.0070 ca         1 69U       0.001000
     12 C22         -1.8900     5.0500    -1.0840 ca         1 69U      -0.113500
     13 C23         -1.2440     6.2690    -1.0780 ca         1 69U      -0.154000
     14 C24         -0.4690     6.6400     0.0110 ca         1 69U       0.097100
     15 C26         -0.9870     4.5700     1.1020 ca         1 69U      -0.113500
     16 C2           1.5060     0.0000    -0.0000 ca         1 69U      -0.128300
     17 C3           2.1970    -0.0010    -1.1980 ca         1 69U      -0.096000
     18 C14         -2.4550     2.8790     0.0050 cd         1 69U      -0.337300
     19 C4           3.5780    -0.0010    -1.2000 ca         1 69U      -0.155000
     20 N9          -0.4880     1.3820    -0.0000 nu         1 69U      -0.816600
     21 N11         -2.8450     0.7070    -0.0010 na         1 69U      -0.072600
     22 N12         -4.0750     1.3740     0.0060 nc         1 69U      -0.521800
     23 C13         -3.8560     2.6700     0.0080 cd         1 69U       0.441800
     24 C15         -4.8960     3.7270     0.0150 ca         1 69U      -0.126500
     25 C25         -0.3390     5.7870     1.0980 ca         1 69U      -0.154000
     26 O28          0.1660     7.8420     0.0110 oh         1 69U      -0.523100
     27 H1          -0.3610    -0.5110    -0.8840 h1         1 69U       0.040700
     28 H2          -0.3610    -0.5100     0.8850 h1         1 69U       0.040700
     29 H3           4.1170     0.0000     2.1410 ha         1 69U       0.145000
     30 H4           1.6540    -0.0000     2.1350 ha         1 69U       0.139000
     31 H5          -3.7540     5.0630     1.2570 ha         1 69U       0.147000
     32 H6          -5.4840     6.8160     1.2680 ha         1 69U       0.141500
     33 H7          -7.9860     4.3740    -1.2020 ha         1 69U       0.141500
     34 H8          -6.2630     2.6160    -1.2200 ha         1 69U       0.147000
     35 H9          -2.4940     4.7590    -1.9350 ha         1 69U       0.139500
     36 H10         -1.3430     6.9370    -1.9250 ha         1 69U       0.139500
     37 H11         -0.8850     3.9040     1.9510 ha         1 69U       0.139500
     38 H12          1.6540    -0.0010    -2.1350 ha         1 69U       0.139000
     39 H13          4.1190    -0.0010    -2.1390 ha         1 69U       0.145000
     40 H14          5.9500    -0.8820     0.0010 ho         1 69U       0.423000
     41 H15          0.1620     2.1420    -0.0340 hn         1 69U       0.468800
     42 H16         -2.7170    -0.2860    -0.0040 hn         1 69U       0.327700
     43 H17          0.2660     6.0810     1.9470 ha         1 69U       0.139500
     44 H18         -8.3760     6.5330     0.7650 ho         1 69U       0.419000
     45 H19          1.0250     7.7440    -0.3650 ho         1 69U       0.416000
     46 O8           5.6320     0.0060     0.0000 oh         1 69U      -0.520100
     47 O27         -7.7910     6.6720     0.0380 oh         1 69U      -0.524100
@<TRIPOS>BOND
     1    46     2 1   
     2     2    19 ar  
     3     2     3 ar  
     4    26    14 1   
     5    19    17 ar  
     6    25    14 ar  
     7    25    15 ar  
     8     3     4 ar  
     9    14    13 ar  
    10    15    11 ar  
    11    17    16 ar  
    12     4    16 ar  
    13    16     1 1   
    14    13    12 ar  
    15     1    20 1   
    16    11    12 ar  
    17    11    18 1   
    18    18     5 2   
    19    18    23 1   
    20     9    10 ar  
    21     9     8 ar  
    22    10    24 ar  
    23    20     5 1   
    24    47     8 1   
    25     8     7 ar  
    26    24    23 1   
    27    24     6 ar  
    28     5    21 1   
    29    23    22 2   
    30     7     6 ar  
    31    21    22 1   
    32     1    27 1   
    33     1    28 1   
    34     3    29 1   
    35     4    30 1   
    36     6    31 1   
    37     7    32 1   
    38     9    33 1   
    39    10    34 1   
    40    12    35 1   
    41    13    36 1   
    42    15    37 1   
    43    17    38 1   
    44    19    39 1   
    45    46    40 1   
    46    20    41 1   
    47    21    42 1   
    48    25    43 1   
    49    47    44 1   
    50    26    45 1   
@<TRIPOS>SUBSTRUCTURE
     1 69U         1 TEMP              0 ****  ****    0 ROOT
