@<TRIPOS>MOLECULE
69U
   47    50     1     0     0
SMALL
bcc


@<TRIPOS>ATOM
      1 C1           0.0000     0.0000     0.0000 c3         1 69U       0.228100
      2 C5           4.2730     0.0000     0.0000 ca         1 69U       0.137100
      3 C6           3.5780     0.0000     1.2010 ca         1 69U      -0.139000
      4 C7           2.1970    -0.0000     1.1980 ca         1 69U      -0.061000
      5 C10         -1.8540     1.6350    -0.0000 cc         1 69U      -0.088700
      6 C16         -4.6820     4.9120     0.7190 ca         1 69U      -0.063500
      7 C17         -5.6500     5.8940     0.7230 ca         1 69U      -0.145000
      8 C18         -6.8390     5.7010     0.0320 ca         1 69U       0.125100
      9 C19         -7.0570     4.5210    -0.6650 ca         1 69U      -0.145000
     10 C20         -6.0930     3.5360    -0.6740 ca         1 69U      -0.063500
     11 C21         -1.7620     4.1910     0.0070 ca         1 69U       0.012000
     12 C22         -1.8900     5.0500    -1.0840 ca         1 69U      -0.085500
     13 C23         -1.2440     6.2690    -1.0780 ca         1 69U      -0.137500
     14 C24         -0.4690     6.6400     0.0110 ca         1 69U       0.115100
     15 C26         -0.9870     4.5700     1.1020 ca         1 69U      -0.085500
     16 C2           1.5060     0.0000    -0.0000 ca         1 69U      -0.143300
     17 C3           2.1970    -0.0010    -1.1980 ca         1 69U      -0.061000
     18 C14         -2.4550     2.8790     0.0050 cd         1 69U      -0.339300
     19 C4           3.5780    -0.0010    -1.2000 ca         1 69U      -0.139000
     20 N9          -0.4880     1.3820    -0.0000 nu         1 69U      -0.414600
     21 N11         -2.8450     0.7070    -0.0010 na         1 69U       0.406400
     22 N12         -4.0750     1.3740     0.0060 nc         1 69U      -0.678800
     23 C13         -3.8560     2.6700     0.0080 cd         1 69U       0.480800
     24 C15         -4.8960     3.7270     0.0150 ca         1 69U      -0.134500
     25 C25         -0.3390     5.7870     1.0980 ca         1 69U      -0.137500
     26 O28          0.1660     7.8420     0.0110 oh         1 69U      -0.501100
     27 H1          -0.3610    -0.5110    -0.8840 h1         1 69U       0.009700
     28 H2          -0.3610    -0.5100     0.8850 h1         1 69U       0.009700
     29 H3           4.1170     0.0000     2.1410 ha         1 69U       0.118000
     30 H4           1.6540    -0.0000     2.1350 ha         1 69U       0.109000
     31 H5          -3.7540     5.0630     1.2570 ha         1 69U       0.118500
     32 H6          -5.4840     6.8160     1.2680 ha         1 69U       0.114000
     33 H7          -7.9860     4.3740    -1.2020 ha         1 69U       0.114000
     34 H8          -6.2630     2.6160    -1.2200 ha         1 69U       0.118500
     35 H9          -2.4940     4.7590    -1.9350 ha         1 69U       0.111000
     36 H10         -1.3430     6.9370    -1.9250 ha         1 69U       0.113000
     37 H11         -0.8850     3.9040     1.9510 ha         1 69U       0.111000
     38 H12          1.6540    -0.0010    -2.1350 ha         1 69U       0.109000
     39 H13          4.1190    -0.0010    -2.1390 ha         1 69U       0.118000
     40 H14          5.9500    -0.8820     0.0010 ho         1 69U       0.406000
     41 H15          0.1620     2.1420    -0.0340 hn         1 69U       0.317800
     42 H16         -2.7170    -0.2860    -0.0040 hn         1 69U       0.149700
     43 H17          0.2660     6.0810     1.9470 ha         1 69U       0.113000
     44 H18         -8.3760     6.5330     0.7650 ho         1 69U       0.401000
     45 H19          1.0250     7.7440    -0.3650 ho         1 69U       0.400000
     46 O8           5.6320     0.0060     0.0000 oh         1 69U      -0.499100
     47 O27         -7.7910     6.6720     0.0380 oh         1 69U      -0.503100
@<TRIPOS>BOND
     1     1    16 1   
     2     1    20 1   
     3     1    27 1   
     4     1    28 1   
     5     2     3 ar  
     6     2    19 ar  
     7     2    46 1   
     8     3     4 ar  
     9     3    29 1   
    10     4    16 ar  
    11     4    30 1   
    12     5    18 2   
    13     5    20 1   
    14     5    21 1   
    15     6     7 ar  
    16     6    24 ar  
    17     6    31 1   
    18     7     8 ar  
    19     7    32 1   
    20     8     9 ar  
    21     8    47 1   
    22     9    10 ar  
    23     9    33 1   
    24    10    24 ar  
    25    10    34 1   
    26    11    12 ar  
    27    11    15 ar  
    28    11    18 1   
    29    12    13 ar  
    30    12    35 1   
    31    13    14 ar  
    32    13    36 1   
    33    14    25 ar  
    34    14    26 1   
    35    15    25 ar  
    36    15    37 1   
    37    16    17 ar  
    38    17    19 ar  
    39    17    38 1   
    40    18    23 1   
    41    19    39 1   
    42    20    41 1   
    43    21    22 1   
    44    21    42 1   
    45    22    23 2   
    46    23    24 1   
    47    25    43 1   
    48    26    45 1   
    49    40    46 1   
    50    44    47 1   
@<TRIPOS>SUBSTRUCTURE
     1 69U         1 TEMP              0 ****  ****    0 ROOT
