@<TRIPOS>MOLECULE
molecule
   62    66     1     0     0
SMALL
bcc


@<TRIPOS>ATOM
      1 N12          0.0000     0.0000     0.0000 ns         1 69V      -0.531400
      2 C13          1.3480     0.0000     0.0000 c          1 69V       0.642100
      3 C15          3.5830     0.0000    -1.0310 ca         1 69V      -0.075300
      4 C17          5.6210     1.1970    -0.6470 ca         1 69V      -0.124500
      5 C20          4.2610    -1.1980    -0.9050 ca         1 69V      -0.107000
      6 C26         -2.6810     1.4070    11.9480 cc         1 69V       0.553300
      7 C28         -2.2790     1.1500    14.2720 c          1 69V       0.642100
      8 C01         -3.8660    -0.7220     6.2920 c3         1 69V      -0.092400
      9 C02         -3.4600    -0.6650     7.7660 c3         1 69V       0.171300
     10 N03         -3.3440     0.7360     8.1890 nh         1 69V      -0.675300
     11 C04         -2.3040     1.4370     7.4270 c3         1 69V       0.171300
     12 C05         -2.6760     1.4440     5.9420 c3         1 69V      -0.092400
     13 C06         -2.8120    -0.0000     5.4480 c3         1 69V       0.140100
     14 C08         -2.2280     0.0000     3.1460 cc         1 69V       0.642700
     15 N09         -0.9510    -0.0000     3.3840 nd         1 69V      -0.396000
     16 N10         -0.1690     0.0000     2.3940 nd         1 69V      -0.299000
     17 C11         -0.6960    -0.0000     1.2060 cc         1 69V       0.521300
     18 C14          2.1010     0.0010    -1.3050 c3         1 69V      -0.103100
     19 C16          4.2610     1.1970    -0.8980 ca         1 69V      -0.107000
     20 C18          6.3010    -0.0010    -0.5270 ca         1 69V      -0.121000
     21 C19          5.6210    -1.1980    -0.6530 ca         1 69V      -0.124500
     22 O21          1.9550    -0.0010     1.0500 o          1 69V      -0.509100
     23 S22         -2.4500    -0.0070     1.3950 ss         1 69V      -0.309800
     24 C23         -3.1050     0.8250     9.5550 cc         1 69V       0.626300
     25 N24         -2.9940    -0.1820    10.3660 nd         1 69V      -0.370000
     26 N25         -2.7560     0.1400    11.6840 nd         1 69V      -0.317000
     27 C29         -2.0260     1.7450    15.6340 c3         1 69V      -0.103100
     28 C30         -1.8740     0.6380    16.6450 ca         1 69V      -0.075300
     29 C31         -2.9830     0.1530    17.3120 ca         1 69V      -0.107000
     30 C32         -2.8430    -0.8620    18.2400 ca         1 69V      -0.125000
     31 C33         -1.5930    -1.3920    18.5010 ca         1 69V      -0.120000
     32 C34         -0.4840    -0.9080    17.8330 ca         1 69V      -0.125000
     33 C35         -0.6240     0.1040    16.9020 ca         1 69V      -0.107000
     34 O36         -2.3300    -0.0540    14.1370 o          1 69V      -0.507100
     35 S37         -2.9140     2.3220    10.4620 ss         1 69V      -0.372800
     36 H1          -0.5000     0.0280    -0.8660 hn         1 69V       0.334500
     37 H2           6.1530     2.1350    -0.5460 ha         1 69V       0.131000
     38 H3           3.7290    -2.1360    -1.0040 ha         1 69V       0.128500
     39 H4          -3.9340    -1.7560     5.9760 hc         1 69V       0.067700
     40 H5          -4.8260    -0.2350     6.1630 hc         1 69V       0.067700
     41 H6          -2.5050    -1.1600     7.8960 h1         1 69V       0.060700
     42 H7          -4.2140    -1.1610     8.3660 h1         1 69V       0.060700
     43 H8          -1.3570     0.9270     7.5580 h1         1 69V       0.060700
     44 H9          -2.2230     2.4570     7.7820 h1         1 69V       0.060700
     45 H10         -3.6180     1.9610     5.8090 hc         1 69V       0.067700
     46 H11         -1.8990     1.9460     5.3780 hc         1 69V       0.067700
     47 H12         -1.8600    -0.5070     5.5510 h1         1 69V       0.078700
     48 H13          1.8390     0.8860    -1.8730 hc         1 69V       0.067200
     49 H14          1.8380    -0.8830    -1.8740 hc         1 69V       0.067200
     50 H15          3.7290     2.1350    -0.9950 ha         1 69V       0.128500
     51 H16          7.3660    -0.0010    -0.3290 ha         1 69V       0.130000
     52 H17          6.1540    -2.1360    -0.5560 ha         1 69V       0.131000
     53 H18         -2.4050     2.9490    13.3180 hn         1 69V       0.334500
     54 H19         -2.8610     2.3760    15.9130 hc         1 69V       0.066700
     55 H20         -1.1190     2.3360    15.6070 hc         1 69V       0.066700
     56 H21         -3.9620     0.5690    17.1070 ha         1 69V       0.129000
     57 H22         -3.7120    -1.2420    18.7630 ha         1 69V       0.131000
     58 H23         -1.4830    -2.1860    19.2290 ha         1 69V       0.129000
     59 H24          0.4950    -1.3250    18.0360 ha         1 69V       0.131000
     60 H25          0.2450     0.4830    16.3780 ha         1 69V       0.129000
     61 O07         -3.2140     0.0000     4.0780 os         1 69V      -0.403100
     62 N27         -2.4480     1.9560    13.2060 ns         1 69V      -0.535400
@<TRIPOS>BOND
     1    30    29 ar
     2    30    31 ar
     3    29    28 ar
     4    31    32 ar
     5    28    27 1
     6    28    33 ar
     7    27     7 1
     8    35     6 1
     9    35    24 1
    10    62     7 1
    11    62     6 1
    12     9     8 1
    13     9    10 1
    14     7    34 2
    15     6    26 2
    16    32    33 ar
    17     8    13 1
    18    24    10 1
    19    24    25 2
    20    10    11 1
    21    26    25 1
    22    13    12 1
    23    13    61 1
    24    11    12 1
    25    23    14 1
    26    23    17 1
    27    61    14 1
    28    14    15 2
    29     1    17 1
    30     1     2 1
    31    17    16 2
    32    22     2 2
    33     2    18 1
    34     4    19 ar
    35     4    20 ar
    36    19     3 ar
    37    15    16 1
    38    20    21 ar
    39     3    18 1
    40     3     5 ar
    41    21     5 ar
    42     1    36 1
    43     4    37 1
    44     5    38 1
    45     8    39 1
    46     8    40 1
    47     9    41 1
    48     9    42 1
    49    11    43 1
    50    11    44 1
    51    12    45 1
    52    12    46 1
    53    13    47 1
    54    18    48 1
    55    18    49 1
    56    19    50 1
    57    20    51 1
    58    21    52 1
    59    62    53 1
    60    27    54 1
    61    27    55 1
    62    29    56 1
    63    30    57 1
    64    31    58 1
    65    32    59 1
    66    33    60 1
@<TRIPOS>SUBSTRUCTURE
     1 69V         1 TEMP              0 ****  ****    0 ROOT
