@<TRIPOS>MOLECULE
69W
   33    35     1     0     0
SMALL
bcc


@<TRIPOS>ATOM
      1 N            0.0000     0.0000     0.0000 nv         1 69W      -0.562200
      2 C1           1.3970     0.0000     0.0000 ca         1 69W       0.031600
      3 C2           2.0920     0.0000     1.2040 ca         1 69W      -0.115000
      4 C3           3.4740     0.0000     1.2080 ca         1 69W      -0.094000
      5 C4           4.1710    -0.0000     0.0160 ca         1 69W      -0.105000
      6 C5           3.4840    -0.0000    -1.1950 cp         1 69W      -0.025000
      7 C6           2.0910    -0.0060    -1.2010 ca         1 69W      -0.113000
      8 C7           4.2320     0.0010    -2.4760 cp         1 69W      -0.024000
      9 C8           5.6240     0.0000    -2.4700 ca         1 69W      -0.103000
     10 C9           6.3190     0.0010    -3.6760 ca         1 69W       0.043000
     11 C10          5.6190     0.0020    -4.8820 ca         1 69W      -0.123000
     12 C11          4.2380     0.0010    -4.8810 ca         1 69W      -0.094000
     13 C12          3.5430    -0.0050    -3.6880 ca         1 69W      -0.114000
     14 C13          7.8030     0.0020    -3.6770 cc         1 69W      -0.359300
     15 C14          8.6230    -0.8510    -4.3950 cd         1 69W      -0.102700
     16 N15          9.9000    -0.5110    -4.1120 na         1 69W       0.408400
     17 N16          9.8800     0.5620    -3.2120 nd         1 69W      -0.685800
     18 C17          8.6380     0.8750    -2.9550 cc         1 69W       0.447200
     19 N18          8.2110    -1.8670    -5.2470 nv         1 69W      -0.425200
     20 H1          -0.5000     0.8670     0.0030 hn         1 69W       0.272300
     21 H2          -0.5000    -0.8670     0.0050 hn         1 69W       0.272300
     22 H3           1.5490     0.0000     2.1420 ha         1 69W       0.106000
     23 H4           4.0120    -0.0000     2.1480 ha         1 69W       0.101000
     24 H5           5.2550     0.0020     0.0230 ha         1 69W       0.112000
     25 H6           1.5510    -0.0060    -2.1400 ha         1 69W       0.117000
     26 H7           6.1640    -0.0000    -1.5310 ha         1 69W       0.119000
     27 H8           6.1590     0.0040    -5.8210 ha         1 69W       0.105000
     28 H9           3.6980    -0.0010    -5.8210 ha         1 69W       0.100000
     29 H10          2.4600    -0.0050    -3.6930 ha         1 69W       0.111000
     30 H11         10.7190    -0.9510    -4.4800 hn         1 69W       0.145700
     31 H12          8.3070     1.6660    -2.2920 h4         1 69W       0.003100
     32 H13          7.2440    -2.1200    -5.2930 hn         1 69W       0.273800
     33 H14          8.8860    -2.3700    -5.7880 hn         1 69W       0.273800
@<TRIPOS>BOND
     1     1     2 1   
     2     1    20 1   
     3     1    21 1   
     4     2     3 ar  
     5     2     7 ar  
     6     3     4 ar  
     7     3    22 1   
     8     4     5 ar  
     9     4    23 1   
    10     5     6 ar  
    11     5    24 1   
    12     6     7 ar  
    13     6     8 1   
    14     7    25 1   
    15     8     9 ar  
    16     8    13 ar  
    17     9    10 ar  
    18     9    26 1   
    19    10    11 ar  
    20    10    14 1   
    21    11    12 ar  
    22    11    27 1   
    23    12    13 ar  
    24    12    28 1   
    25    13    29 1   
    26    14    15 2   
    27    14    18 1   
    28    15    16 1   
    29    15    19 1   
    30    16    17 1   
    31    16    30 1   
    32    17    18 2   
    33    18    31 1   
    34    19    32 1   
    35    19    33 1   
@<TRIPOS>SUBSTRUCTURE
     1 69W         1 TEMP              0 ****  ****    0 ROOT
