@<TRIPOS>MOLECULE
molecule
   33    35     1     0     0
SMALL
bcc


@<TRIPOS>ATOM
      1 N            0.0000     0.0000     0.0000 nv         1 69W      -0.991200
      2 C1           1.3970     0.0000     0.0000 ca         1 69W       0.163600
      3 C2           2.0920     0.0000     1.2040 ca         1 69W      -0.144000
      4 C3           3.4740     0.0000     1.2080 ca         1 69W      -0.124000
      5 C4           4.1710    -0.0000     0.0160 ca         1 69W      -0.127000
      6 C5           3.4840    -0.0000    -1.1950 cp         1 69W      -0.031000
      7 C6           2.0910    -0.0060    -1.2010 ca         1 69W      -0.136000
      8 C7           4.2320     0.0010    -2.4760 cp         1 69W      -0.030000
      9 C8           5.6240     0.0000    -2.4700 ca         1 69W      -0.117000
     10 C9           6.3190     0.0010    -3.6760 ca         1 69W       0.023000
     11 C10          5.6190     0.0020    -4.8820 ca         1 69W      -0.141000
     12 C11          4.2380     0.0010    -4.8810 ca         1 69W      -0.126000
     13 C12          3.5430    -0.0050    -3.6880 ca         1 69W      -0.130000
     14 C13          7.8030     0.0020    -3.6770 cc         1 69W      -0.350300
     15 C14          8.6230    -0.8510    -4.3950 cd         1 69W       0.214300
     16 N15          9.9000    -0.5110    -4.1120 na         1 69W      -0.075600
     17 N16          9.8800     0.5620    -3.2120 nc         1 69W      -0.527800
     18 C17          8.6380     0.8750    -2.9550 cd         1 69W       0.381200
     19 N18          8.2110    -1.8670    -5.2470 nv         1 69W      -0.911200
     20 H1          -0.5000     0.8670     0.0030 hn         1 69W       0.427300
     21 H2          -0.5000    -0.8670     0.0050 hn         1 69W       0.427300
     22 H3           1.5490     0.0000     2.1420 ha         1 69W       0.134000
     23 H4           4.0120    -0.0000     2.1480 ha         1 69W       0.130000
     24 H5           5.2550     0.0020     0.0230 ha         1 69W       0.134000
     25 H6           1.5510    -0.0060    -2.1400 ha         1 69W       0.138000
     26 H7           6.1640    -0.0000    -1.5310 ha         1 69W       0.138000
     27 H8           6.1590     0.0040    -5.8210 ha         1 69W       0.131000
     28 H9           3.6980    -0.0010    -5.8210 ha         1 69W       0.127000
     29 H10          2.4600    -0.0050    -3.6930 ha         1 69W       0.132000
     30 H11         10.7190    -0.9510    -4.4800 hn         1 69W       0.324700
     31 H12          8.3070     1.6660    -2.2920 h4         1 69W       0.050100
     32 H13          7.2440    -2.1200    -5.2930 hn         1 69W       0.443300
     33 H14          8.8860    -2.3700    -5.7880 hn         1 69W       0.443300
@<TRIPOS>BOND
     1    11    12 ar  
     2    11    10 ar  
     3    17    16 1   
     4    17    18 2   
     5    16    15 1   
     6    18    14 1   
     7    12    13 ar  
     8    15    14 2   
     9    15    19 1   
    10    14    10 1   
    11    10     9 ar  
    12    13     8 ar  
    13     9     8 ar  
    14     8     6 1   
    15     6     5 ar  
    16     6     7 ar  
    17     5     4 ar  
    18     7     2 ar  
    19     4     3 ar  
    20     2     3 ar  
    21     2     1 1   
    22     1    20 1   
    23     1    21 1   
    24     3    22 1   
    25     4    23 1   
    26     5    24 1   
    27     7    25 1   
    28     9    26 1   
    29    11    27 1   
    30    12    28 1   
    31    13    29 1   
    32    16    30 1   
    33    18    31 1   
    34    19    32 1   
    35    19    33 1   
@<TRIPOS>SUBSTRUCTURE
     1 69W         1 TEMP              0 ****  ****    0 ROOT
