@<TRIPOS>MOLECULE
69Y
   43    45     1     0     0
SMALL
bcc


@<TRIPOS>ATOM
      1 C1           0.0000     0.0000     0.0000 ce         1 69Y       0.369900
      2 C2          -0.8650     0.3110    -1.1550 ca         1 69Y      -0.119900
      3 C5          -2.4880     0.8960    -3.3220 ca         1 69Y      -0.085000
      4 C6          -2.2550     0.2810    -1.0190 ca         1 69Y      -0.075000
      5 C11          4.5220     0.8420     4.4800 c          1 69Y       0.592100
      6 C12          5.6380    -0.1330     4.7490 c3         1 69Y      -0.105400
      7 C13          6.7420     0.5620     5.5480 c3         1 69Y      -0.073400
      8 C14          7.8760    -0.4280     5.8210 c3         1 69Y       0.562900
      9 C15          2.3390     1.3890     3.5180 c3         1 69Y       0.048000
     10 C16          2.0770     1.4190     2.0070 c3         1 69Y      -0.045900
     11 O1           4.6000     1.9820     4.8880 o          1 69Y      -0.649100
     12 F2           8.8850     0.2080     6.5520 f          1 69Y      -0.209633
     13 F1           7.3820    -1.5130     6.5540 f          1 69Y      -0.209633
     14 F            8.3980    -0.8860     4.6060 f          1 69Y      -0.209633
     15 N1           3.4360     0.4480     3.7870 n          1 69Y      -0.151800
     16 C10          3.3270    -0.9290     3.2870 c3         1 69Y       0.048000
     17 C9           3.0580    -0.8840     1.7780 c3         1 69Y      -0.045900
     18 C            1.8500     0.0000     1.5050 c3         1 69Y       0.115800
     19 C8           1.5180     0.0000     0.0000 c3         1 69Y      -0.116700
     20 N           -0.4050    -0.3130     1.1860 n2         1 69Y      -0.352200
     21 O            0.6620    -0.5630     2.0830 os         1 69Y      -0.152300
     22 C7          -3.0570     0.5730    -2.1020 ca         1 69Y      -0.104000
     23 C4          -1.1120     0.9330    -3.4620 ca         1 69Y      -0.104000
     24 C3          -0.2980     0.6430    -2.3860 ca         1 69Y      -0.075000
     25 H1          -3.1220     1.1250    -4.1690 ha         1 69Y       0.104000
     26 H2          -2.7020     0.0280    -0.0650 ha         1 69Y       0.114000
     27 H3           6.0430    -0.4880     3.8080 hc         1 69Y       0.043700
     28 H4           5.2560    -0.9730     5.3160 hc         1 69Y       0.043700
     29 H5           6.3380     0.9160     6.4890 hc         1 69Y       0.066200
     30 H6           7.1250     1.4010     4.9810 hc         1 69Y       0.066200
     31 H7           2.6200     2.3790     3.8570 h1         1 69Y       0.040200
     32 H8           1.4460     1.0610     4.0350 h1         1 69Y       0.040200
     33 H9           2.9340     1.8470     1.5010 hc         1 69Y       0.033450
     34 H10          1.1960     2.0170     1.8070 hc         1 69Y       0.033450
     35 H11          4.2540    -1.4570     3.4740 h1         1 69Y       0.040200
     36 H12          2.5080    -1.4330     3.7860 h1         1 69Y       0.040200
     37 H13          3.9240    -0.4770     1.2700 hc         1 69Y       0.033450
     38 H14          2.8590    -1.8870     1.4180 hc         1 69Y       0.033450
     39 H15          1.9010    -0.8940    -0.4770 hc         1 69Y       0.044200
     40 H16          1.9010     0.8940    -0.4770 hc         1 69Y       0.044200
     41 H17         -4.1360     0.5470    -1.9980 ha         1 69Y       0.106000
     42 H18         -0.6730     1.1880    -4.4180 ha         1 69Y       0.106000
     43 H19          0.7790     0.6720    -2.4980 ha         1 69Y       0.114000
@<TRIPOS>BOND
     1     1     2 1   
     2     1    19 1   
     3     1    20 2   
     4     2     4 ar  
     5     2    24 ar  
     6     3    22 ar  
     7     3    23 ar  
     8     3    25 1   
     9     4    22 ar  
    10     4    26 1   
    11     5     6 1   
    12     5    11 2   
    13     5    15 1   
    14     6     7 1   
    15     6    27 1   
    16     6    28 1   
    17     7     8 1   
    18     7    29 1   
    19     7    30 1   
    20     8    12 1   
    21     8    13 1   
    22     8    14 1   
    23     9    10 1   
    24     9    15 1   
    25     9    31 1   
    26     9    32 1   
    27    10    18 1   
    28    10    33 1   
    29    10    34 1   
    30    15    16 1   
    31    16    17 1   
    32    16    35 1   
    33    16    36 1   
    34    17    18 1   
    35    17    37 1   
    36    17    38 1   
    37    18    19 1   
    38    18    21 1   
    39    19    39 1   
    40    19    40 1   
    41    20    21 1   
    42    22    41 1   
    43    23    24 ar  
    44    23    42 1   
    45    24    43 1   
@<TRIPOS>SUBSTRUCTURE
     1 69Y         1 TEMP              0 ****  ****    0 ROOT
