@<TRIPOS>MOLECULE
molecule
   43    45     1     0     0
SMALL
bcc


@<TRIPOS>ATOM
      1 C1           0.0000     0.0000     0.0000 ce         1 69Y       0.377900
      2 C2          -0.8650     0.3110    -1.1550 ca         1 69Y      -0.118900
      3 C5          -2.4880     0.8960    -3.3220 ca         1 69Y      -0.110000
      4 C6          -2.2550     0.2810    -1.0190 ca         1 69Y      -0.097500
      5 C11          4.5220     0.8420     4.4800 c          1 69Y       0.666100
      6 C12          5.6380    -0.1330     4.7490 c3         1 69Y      -0.162400
      7 C13          6.7420     0.5620     5.5480 c3         1 69Y      -0.115400
      8 C14          7.8760    -0.4280     5.8210 c3         1 69Y       0.609900
      9 C15          2.3390     1.3890     3.5180 c3         1 69Y       0.107000
     10 C16          2.0770     1.4190     2.0070 c3         1 69Y      -0.096400
     11 O1           4.6000     1.9820     4.8880 o          1 69Y      -0.613100
     12 F2           8.8850     0.2080     6.5520 f          1 69Y      -0.228967
     13 F1           7.3820    -1.5130     6.5540 f          1 69Y      -0.228967
     14 F            8.3980    -0.8860     4.6060 f          1 69Y      -0.228967
     15 N1           3.4360     0.4480     3.7870 n          1 69Y      -0.489800
     16 C10          3.3270    -0.9290     3.2870 c3         1 69Y       0.107000
     17 C9           3.0580    -0.8840     1.7780 c3         1 69Y      -0.096400
     18 C            1.8500     0.0000     1.5050 c3         1 69Y       0.105800
     19 C8           1.5180     0.0000     0.0000 c3         1 69Y      -0.179700
     20 N           -0.4050    -0.3130     1.1860 n2         1 69Y      -0.377200
     21 O            0.6620    -0.5630     2.0830 os         1 69Y      -0.158300
     22 C7          -3.0570     0.5730    -2.1020 ca         1 69Y      -0.132500
     23 C4          -1.1120     0.9330    -3.4620 ca         1 69Y      -0.132500
     24 C3          -0.2980     0.6430    -2.3860 ca         1 69Y      -0.097500
     25 H1          -3.1220     1.1250    -4.1690 ha         1 69Y       0.134000
     26 H2          -2.7020     0.0280    -0.0650 ha         1 69Y       0.142500
     27 H3           6.0430    -0.4880     3.8080 hc         1 69Y       0.074700
     28 H4           5.2560    -0.9730     5.3160 hc         1 69Y       0.074700
     29 H5           6.3380     0.9160     6.4890 hc         1 69Y       0.095200
     30 H6           7.1250     1.4010     4.9810 hc         1 69Y       0.095200
     31 H7           2.6200     2.3790     3.8570 h1         1 69Y       0.066950
     32 H8           1.4460     1.0610     4.0350 h1         1 69Y       0.066950
     33 H9           2.9340     1.8470     1.5010 hc         1 69Y       0.061200
     34 H10          1.1960     2.0170     1.8070 hc         1 69Y       0.061200
     35 H11          4.2540    -1.4570     3.4740 h1         1 69Y       0.066950
     36 H12          2.5080    -1.4330     3.7860 h1         1 69Y       0.066950
     37 H13          3.9240    -0.4770     1.2700 hc         1 69Y       0.061200
     38 H14          2.8590    -1.8870     1.4180 hc         1 69Y       0.061200
     39 H15          1.9010    -0.8940    -0.4770 hc         1 69Y       0.073700
     40 H16          1.9010     0.8940    -0.4770 hc         1 69Y       0.073700
     41 H17         -4.1360     0.5470    -1.9980 ha         1 69Y       0.136000
     42 H18         -0.6730     1.1880    -4.4180 ha         1 69Y       0.136000
     43 H19          0.7790     0.6720    -2.4980 ha         1 69Y       0.142500
@<TRIPOS>BOND
     1    23    24 ar  
     2    23     3 ar  
     3    13     8 1   
     4    24     2 ar  
     5    19    18 1   
     6    19     1 1   
     7     3    22 ar  
     8    12     8 1   
     9    10    18 1   
    10    10     9 1   
    11     8     7 1   
    12     8    14 1   
    13     7     6 1   
    14     6     5 1   
    15     2     1 1   
    16     2     4 ar  
    17    18    17 1   
    18    18    21 1   
    19     5    11 2   
    20     5    15 1   
    21    17    16 1   
    22     9    15 1   
    23     1    20 2   
    24    15    16 1   
    25    22     4 ar  
    26    21    20 1   
    27     3    25 1   
    28     4    26 1   
    29     6    27 1   
    30     6    28 1   
    31     7    29 1   
    32     7    30 1   
    33     9    31 1   
    34     9    32 1   
    35    10    33 1   
    36    10    34 1   
    37    16    35 1   
    38    16    36 1   
    39    17    37 1   
    40    17    38 1   
    41    19    39 1   
    42    19    40 1   
    43    22    41 1   
    44    23    42 1   
    45    24    43 1   
@<TRIPOS>SUBSTRUCTURE
     1 69Y         1 TEMP              0 ****  ****    0 ROOT
