@<TRIPOS>MOLECULE
69Z
   38    41     1     0     0
SMALL
bcc


@<TRIPOS>ATOM
      1 C2           0.0000     0.0000     0.0000 ca         1 69Z      -0.028600
      2 C3           1.3830     0.0000     0.0000 ca         1 69Z      -0.094500
      3 C4           2.0750     0.0000     1.1970 ca         1 69Z      -0.076000
      4 C5           1.3830    -0.0010     2.3930 ca         1 69Z      -0.104300
      5 C6           0.0010    -0.0020     2.3940 ca         1 69Z      -0.076000
      6 C7          -0.6910    -0.0010     1.1980 ca         1 69Z      -0.094500
      7 C8           2.1380    -0.0010     3.6980 c3         1 69Z       0.093000
      8 C11          2.0100    -1.1940     5.8020 c3         1 69Z      -0.032400
      9 C12          1.0320     0.0080     5.8210 c3         1 69Z       0.023000
     10 N13          1.4410     0.8460     4.6790 n          1 69Z      -0.125800
     11 C16          0.5000     2.9000     5.6200 cc         1 69Z       0.497900
     12 C19         -0.6990     4.5580     7.2180 cc         1 69Z      -0.281700
     13 Cl1         -0.8690     0.0070    -1.5040 cl         1 69Z      -0.026400
     14 C10          2.1820    -1.4300     4.2780 c3         1 69Z      -0.033400
     15 C14          1.2160     2.1690     4.5530 c          1 69Z       0.537600
     16 O15          1.6000     2.7600     3.5640 o          1 69Z      -0.607100
     17 N17          0.0380     2.4090     6.7270 nd         1 69Z      -0.570800
     18 N18         -0.6130     3.2480     7.6210 na         1 69Z       0.437600
     19 C20         -1.3520     5.2490     8.1780 cd         1 69Z       0.403200
     20 N21         -1.6640     4.3920     9.1580 nd         1 69Z      -0.589000
     21 C22         -1.2360     3.2000     8.8480 cc         1 69Z       0.266800
     22 S24          0.1060     4.6270     5.6470 ss         1 69Z      -0.272300
     23 H1           1.9250     0.0010    -0.9380 ha         1 69Z       0.115000
     24 H2           3.1580     0.0010     1.1960 ha         1 69Z       0.108000
     25 H3          -0.5400    -0.0030     3.3330 ha         1 69Z       0.108000
     26 H4          -1.7740    -0.0020     1.1990 ha         1 69Z       0.115000
     27 H5           3.1460     0.3660     3.5480 h1         1 69Z       0.043700
     28 H6           2.9550    -0.9300     6.2610 hc         1 69Z       0.028200
     29 H7           1.5660    -2.0590     6.2790 hc         1 69Z       0.028200
     30 H8           1.1350     0.5600     6.7480 h1         1 69Z       0.037700
     31 H9           0.0130    -0.3350     5.6900 h1         1 69Z       0.037700
     32 H10         -0.4210     1.5760     9.9570 hc         1 69Z       0.017367
     33 H11         -1.9500     1.2160     9.1430 hc         1 69Z       0.017367
     34 H12         -1.9380     2.2180    10.6010 hc         1 69Z       0.017367
     35 H13          1.3650    -2.0260     3.8890 hc         1 69Z       0.031700
     36 H14          3.1380    -1.8970     4.0700 hc         1 69Z       0.031700
     37 H15         -1.5820     6.3070     8.1590 h4         1 69Z       0.012100
     38 C23         -1.3980     1.9660     9.6970 c3         1 69Z       0.003600
@<TRIPOS>BOND
     1     1     2 ar  
     2     1     6 ar  
     3     1    13 1   
     4     2     3 ar  
     5     2    23 1   
     6     3     4 ar  
     7     3    24 1   
     8     4     5 ar  
     9     4     7 1   
    10     5     6 ar  
    11     5    25 1   
    12     6    26 1   
    13     7    10 1   
    14     7    14 1   
    15     7    27 1   
    16     8     9 1   
    17     8    14 1   
    18     8    28 1   
    19     8    29 1   
    20     9    10 1   
    21     9    30 1   
    22     9    31 1   
    23    10    15 1   
    24    11    15 1   
    25    11    17 2   
    26    11    22 1   
    27    12    18 1   
    28    12    19 2   
    29    12    22 1   
    30    14    35 1   
    31    14    36 1   
    32    15    16 2   
    33    17    18 1   
    34    18    21 1   
    35    19    20 1   
    36    19    37 1   
    37    20    21 2   
    38    21    38 1   
    39    32    38 1   
    40    33    38 1   
    41    34    38 1   
@<TRIPOS>SUBSTRUCTURE
     1 69Z         1 TEMP              0 ****  ****    0 ROOT
