@<TRIPOS>MOLECULE
6A0
   30    29     1     0     0
SMALL
bcc


@<TRIPOS>ATOM
      1 N            0.0000     0.0000     0.0000 nz         1 6A0       0.013400
      2 CA           1.4690     0.0000     0.0000 c3         1 6A0      -0.107500
      3 C            1.9730    -1.2300    -0.7110 c          1 6A0       0.950600
      4 O            3.2260    -1.2630    -1.1880 o          1 6A0      -0.808300
      5 C6           1.9790     0.0000     1.4430 c3         1 6A0      -0.206400
      6 C5           1.5740     1.3070     2.1270 c3         1 6A0       0.016600
      7 C4           2.0840     1.3070     3.5700 c3         1 6A0      -0.026400
      8 C3           1.6770     2.6140     4.2550 c3         1 6A0      -0.015400
      9 C2           2.1880     2.6130     5.6970 c3         1 6A0      -0.090400
     10 C1           1.7880     3.9000     6.3710 c          1 6A0       0.569100
     11 O2           1.1580     4.7360     5.7580 o          1 6A0      -0.621100
     12 N1           2.1320     4.1230     7.6550 ns         1 6A0      -0.057400
     13 O1           1.7560     5.3330     8.2880 oh         1 6A0      -0.437100
     14 H1          -0.3340    -0.7040    -0.6280 hn         1 6A0       0.221800
     15 H2          -0.3340     0.8960    -0.2960 hn         1 6A0       0.221800
     16 H4           1.8300     0.8850    -0.5100 hx         1 6A0       0.064700
     17 H6           2.3650     0.7170     0.7290 hc         1 6A0       0.098200
     18 H7           2.8720    -0.5340     1.7450 hc         1 6A0       0.098200
     19 H8           2.0050     2.1440     1.5920 hc         1 6A0      -0.003800
     20 H9           0.4940     1.3960     2.1260 hc         1 6A0      -0.003800
     21 H10          3.1640     1.2190     3.5710 hc         1 6A0       0.023200
     22 H11          1.6530     0.4690     4.1050 hc         1 6A0       0.023200
     23 H12          0.5980     2.7010     4.2540 hc         1 6A0       0.030200
     24 H13          2.1090     3.4510     3.7190 hc         1 6A0       0.030200
     25 H14          1.7560     1.7760     6.2320 hc         1 6A0       0.028200
     26 H15          3.2670     2.5250     5.6980 hc         1 6A0       0.028200
     27 H16          2.6510     3.4340     8.1610 hn         1 6A0       0.154500
     28 H17          2.0720     5.3340     9.1770 ho         1 6A0       0.393000
     29 O3           1.2470    -2.1860    -0.8500 o          1 6A0      -0.808300
     30 HN3         -0.3340    -0.1910     0.9240 hn         1 6A0       0.221800
@<TRIPOS>BOND
     1     1     2 1   
     2     1    14 1   
     3     1    15 1   
     4     1    30 1   
     5     2     3 1   
     6     2     5 1   
     7     2    16 1   
     8     3     4 1   
     9     3    29 1   
    10     5     6 1   
    11     5    17 1   
    12     5    18 1   
    13     6     7 1   
    14     6    19 1   
    15     6    20 1   
    16     7     8 1   
    17     7    21 1   
    18     7    22 1   
    19     8     9 1   
    20     8    23 1   
    21     8    24 1   
    22     9    10 1   
    23     9    25 1   
    24     9    26 1   
    25    10    11 2   
    26    10    12 1   
    27    12    13 1   
    28    12    27 1   
    29    13    28 1   
@<TRIPOS>SUBSTRUCTURE
     1 6A0         1 TEMP              0 ****  ****    0 ROOT
