@<TRIPOS>MOLECULE
6A1
   51    54     1     0     0
SMALL
bcc


@<TRIPOS>ATOM
      1 CAA          0.0000     0.0000     0.0000 c3         1 6A1       0.243700
      2 OAP          1.4300     0.0000     0.0000 os         1 6A1      -0.303900
      3 CAQ          2.0470     0.0000     1.2110 ca         1 6A1       0.172100
      4 CAK          3.4270    -0.0010     1.2800 ca         1 6A1      -0.139000
      5 CAF          1.2860     0.0060     2.3750 ca         1 6A1      -0.180000
      6 CAI          1.9000     0.0070     3.6110 ca         1 6A1      -0.048000
      7 CAV          3.2850     0.0020     3.6990 ca         1 6A1      -0.207300
      8 CAU          4.0610     0.0000     2.5250 ca         1 6A1      -0.015000
      9 CAS          5.5360    -0.0090     2.5980 cc         1 6A1       0.085100
     10 OAD          6.2920    -0.0110     1.4700 oh         1 6A1      -0.493100
     11 CAW          6.1110    -0.0140     3.8170 cd         1 6A1      -0.045300
     12 CAX          5.2760    -0.0070     4.9610 cd         1 6A1      -0.369300
     13 NAY          3.9150     0.0030     4.9370 na         1 6A1       0.554800
     14 CAJ          3.5260     0.0070     6.2380 cd         1 6A1       0.138700
     15 NAN          4.5900     0.0120     7.0180 nc         1 6A1      -0.446300
     16 CAT          5.6850     0.0030     6.2870 cc         1 6A1       0.015400
     17 CAH          7.1610     0.0150     6.5960 c3         1 6A1       0.094800
     18 CAG          7.8960     0.6480     5.4060 c3         1 6A1      -0.068400
     19 CAR          7.5930    -0.0280     4.0830 c3         1 6A1       0.200800
     20 NAO          8.2910     0.6730     2.9980 n7         1 6A1      -0.546200
     21 CAL          7.9380     2.0990     2.9790 c3         1 6A1       0.106800
     22 CAM          8.6820     2.7940     1.8370 c3         1 6A1      -0.009200
     23 NAZ          8.3280     4.2200     1.8190 n4         1 6A1       0.257700
     24 CAB          8.9480     4.8620     0.6530 c3         1 6A1      -0.005900
     25 CAC          6.8690     4.3610     1.7380 c3         1 6A1      -0.005900
     26 OAE          8.8130     4.8580     3.0430 oh         1 6A1      -0.459300
     27 H1          -0.3610     0.8860     0.5080 h1         1 6A1       0.004700
     28 H2          -0.3610    -0.8830     0.5130 h1         1 6A1       0.004700
     29 H3          -0.3610    -0.0030    -1.0210 h1         1 6A1       0.004700
     30 H4           4.0140     0.0700     0.3720 ha         1 6A1       0.128000
     31 H5           0.2050     0.0110     2.3120 ha         1 6A1       0.134000
     32 H6           1.3000     0.0120     4.5130 ha         1 6A1       0.120000
     33 H7           6.2410    -0.8570     1.0590 ho         1 6A1       0.414000
     34 H8           2.4990     0.0050     6.5830 h5         1 6A1       0.041800
     35 H9           7.3410     0.6010     7.4890 hc         1 6A1       0.031700
     36 H10          7.5110    -1.0000     6.7410 hc         1 6A1       0.031700
     37 H11          8.9620     0.5900     5.5870 hc         1 6A1       0.018200
     38 H12          7.6060     1.6890     5.3360 hc         1 6A1       0.018200
     39 H13          7.9340    -1.0550     4.1250 h1         1 6A1       0.060700
     40 H14          9.2790     0.5760     3.1190 hn         1 6A1       0.258800
     41 H16          8.2180     2.5520     3.9220 h1         1 6A1       0.044200
     42 H17          6.8700     2.2040     2.8310 h1         1 6A1       0.044200
     43 H18          8.4020     2.3400     0.8940 hx         1 6A1       0.087200
     44 H19          9.7500     2.6890     1.9860 hx         1 6A1       0.087200
     45 H20         10.0250     4.7590     0.7130 hx         1 6A1       0.080700
     46 H21          8.6870     5.9140     0.6380 hx         1 6A1       0.080700
     47 H22          8.5900     4.3890    -0.2540 hx         1 6A1       0.080700
     48 H23          6.4730     3.6250     1.0480 hx         1 6A1       0.080700
     49 H24          6.6210     5.3550     1.3860 hx         1 6A1       0.080700
     50 H25          6.4360     4.2060     2.7180 hx         1 6A1       0.080700
     51 H26          9.0520     5.7520     2.8580 ho         1 6A1       0.456000
@<TRIPOS>BOND
     1     1     2 1   
     2     1    27 1   
     3     1    28 1   
     4     1    29 1   
     5     2     3 1   
     6     3     4 ar  
     7     3     5 ar  
     8     4     8 ar  
     9     4    30 1   
    10     5     6 ar  
    11     5    31 1   
    12     6     7 ar  
    13     6    32 1   
    14     7     8 ar  
    15     7    13 1   
    16     8     9 1   
    17     9    10 1   
    18     9    11 2   
    19    10    33 1   
    20    11    12 1   
    21    11    19 1   
    22    12    13 1   
    23    12    16 2   
    24    13    14 1   
    25    14    15 2   
    26    14    34 1   
    27    15    16 1   
    28    16    17 1   
    29    17    18 1   
    30    17    35 1   
    31    17    36 1   
    32    18    19 1   
    33    18    37 1   
    34    18    38 1   
    35    19    20 1   
    36    19    39 1   
    37    20    21 1   
    38    20    40 1   
    39    21    22 1   
    40    21    41 1   
    41    21    42 1   
    42    22    23 1   
    43    22    43 1   
    44    22    44 1   
    45    23    24 1   
    46    23    25 1   
    47    23    26 1   
    48    24    45 1   
    49    24    46 1   
    50    24    47 1   
    51    25    48 1   
    52    25    49 1   
    53    25    50 1   
    54    26    51 1   
@<TRIPOS>SUBSTRUCTURE
     1 6A1         1 TEMP              0 ****  ****    0 ROOT
