@<TRIPOS>MOLECULE
molecule
   56    56     1     0     0
SMALL
bcc


@<TRIPOS>ATOM
      1 S4           0.0000     0.0000     0.0000 s          1 6A4      -1.174500
      2 P1           1.9920     0.0000     0.0000 p5         1 6A4       1.820800
      3 O1           2.5740     0.0000     1.5280 os         1 6A4      -0.426200
      4 S5           2.6980     1.5520    -1.0300 s          1 6A4      -1.174500
      5 O2           2.5730    -1.4030    -0.5900 os         1 6A4      -0.436200
      6 C2           3.6580    -1.7500     0.2870 c3         1 6A4       0.087400
      7 C1           3.8560    -0.6500     1.3370 c3         1 6A4       0.065100
      8 C3           4.3250    -1.2670     2.6560 c3         1 6A4       0.166400
      9 O3           4.6080    -0.2120     3.6120 os         1 6A4      -0.403900
     10 C4           5.0330    -0.5880     4.8280 c          1 6A4       0.635100
     11 O18          5.1670    -1.7610     5.0850 o          1 6A4      -0.567000
     12 C5           5.3450     0.4520     5.8720 c3         1 6A4      -0.126400
     13 C6           5.8080    -0.2380     7.1580 c3         1 6A4      -0.072400
     14 C7           6.1240     0.8180     8.2180 c3         1 6A4      -0.084400
     15 C8           6.5870     0.1280     9.5040 c3         1 6A4      -0.080400
     16 C9           6.9030     1.1850    10.5640 c3         1 6A4      -0.082400
     17 C10          7.3660     0.4950    11.8490 c3         1 6A4      -0.082400
     18 C11          7.6820     1.5510    12.9100 c3         1 6A4      -0.082400
     19 C12          8.1440     0.8610    14.1940 c3         1 6A4      -0.082400
     20 C13          8.4610     1.9170    15.2560 c3         1 6A4      -0.082400
     21 C14          8.9230     1.2270    16.5400 c3         1 6A4      -0.082400
     22 C15          9.2400     2.2830    17.6000 c3         1 6A4      -0.081400
     23 C16          9.7020     1.5920    18.8860 c3         1 6A4      -0.084400
     24 C17         10.0190     2.6490    19.9460 c3         1 6A4      -0.092100
     25 H3           3.4300    -2.6840     0.7850 h1         1 6A4       0.065200
     26 H4           4.5660    -1.8580    -0.2930 h1         1 6A4       0.065200
     27 H5           4.5830     0.0700     0.9820 h1         1 6A4       0.099700
     28 H6           5.2240    -1.8470     2.4830 h1         1 6A4       0.056700
     29 H7           3.5490    -1.9120     3.0490 h1         1 6A4       0.056700
     30 H8           4.4570     1.0370     6.0760 hc         1 6A4       0.074700
     31 H9           6.1310     1.1040     5.5100 hc         1 6A4       0.074700
     32 H10          6.6970    -0.8230     6.9540 hc         1 6A4       0.056200
     33 H11          5.0220    -0.8890     7.5200 hc         1 6A4       0.056200
     34 H12          6.9100     1.4700     7.8550 hc         1 6A4       0.041200
     35 H13          5.2360     1.4030     8.4220 hc         1 6A4       0.041200
     36 H14          5.8010    -0.5230     9.8660 hc         1 6A4       0.042700
     37 H15          7.4760    -0.4560     9.3000 hc         1 6A4       0.042700
     38 H16          7.6890     1.8360    10.2010 hc         1 6A4       0.041200
     39 H17          6.0150     1.7690    10.7680 hc         1 6A4       0.041200
     40 H18          8.2550    -0.0900    11.6460 hc         1 6A4       0.041200
     41 H19          6.5800    -0.1570    12.2120 hc         1 6A4       0.041200
     42 H20          8.4680     2.2020    12.5470 hc         1 6A4       0.041200
     43 H21          6.7940     2.1350    13.1140 hc         1 6A4       0.041200
     44 H22          9.0330     0.2760    13.9900 hc         1 6A4       0.040700
     45 H23          7.3590     0.2090    14.5570 hc         1 6A4       0.040700
     46 H24          7.5730     2.5020    15.4600 hc         1 6A4       0.041200
     47 H25          9.2470     2.5680    14.8930 hc         1 6A4       0.041200
     48 H26          9.8120     0.6420    16.3360 hc         1 6A4       0.040700
     49 H27          8.1380     0.5750    16.9030 hc         1 6A4       0.040700
     50 H28         10.0260     2.9340    17.2380 hc         1 6A4       0.040700
     51 H29          8.3510     2.8680    17.8040 hc         1 6A4       0.040700
     52 H30         10.5900     1.0070    18.6830 hc         1 6A4       0.039700
     53 H31          8.9150     0.9410    19.2490 hc         1 6A4       0.039700
     54 H32          9.1310     3.2350    20.1500 hc         1 6A4       0.031700
     55 H33         10.3460     2.1600    20.8560 hc         1 6A4       0.031700
     56 H34         10.8050     3.3000    19.5830 hc         1 6A4       0.031700
@<TRIPOS>BOND
     1     1     2 1   
     2     4     2 1   
     3     2     5 1   
     4     2     3 1   
     5     5     6 1   
     6     3     7 1   
     7     7     6 1   
     8     7     8 1   
     9     8     9 1   
    10    11    10 2   
    11     9    10 1   
    12    10    12 1   
    13    12    13 1   
    14    13    14 1   
    15    14    15 1   
    16    15    16 1   
    17    16    17 1   
    18    17    18 1   
    19    18    19 1   
    20    19    20 1   
    21    21    20 1   
    22    21    22 1   
    23    23    22 1   
    24    23    24 1   
    25     6    25 1   
    26     6    26 1   
    27     7    27 1   
    28     8    28 1   
    29     8    29 1   
    30    12    30 1   
    31    12    31 1   
    32    13    32 1   
    33    13    33 1   
    34    14    34 1   
    35    14    35 1   
    36    15    36 1   
    37    15    37 1   
    38    16    38 1   
    39    16    39 1   
    40    17    40 1   
    41    17    41 1   
    42    18    42 1   
    43    18    43 1   
    44    19    44 1   
    45    19    45 1   
    46    20    46 1   
    47    20    47 1   
    48    21    48 1   
    49    21    49 1   
    50    22    50 1   
    51    22    51 1   
    52    23    52 1   
    53    23    53 1   
    54    24    54 1   
    55    24    55 1   
    56    24    56 1   
@<TRIPOS>SUBSTRUCTURE
     1 6A4         1 TEMP              0 ****  ****    0 ROOT
