@<TRIPOS>MOLECULE
6A5
   48    51     1     0     0
SMALL
bcc


@<TRIPOS>ATOM
      1 C1           0.0000     0.0000     0.0000 cc         1 6A5      -0.078300
      2 C2           1.3800     0.0000     0.0000 cd         1 6A5      -0.305600
      3 C3           2.0590     0.0000     1.2210 cd         1 6A5       0.343600
      4 N4           1.3950    -0.0000     2.3540 nc         1 6A5      -0.434000
      5 N5          -0.6610     0.0000     1.2070 na         1 6A5       0.441900
      6 C6           0.0540    -0.0000     2.3790 cc         1 6A5       0.137500
      7 N7          -0.8050    -0.0000     3.3850 nd         1 6A5      -0.163600
      8 C8          -2.0590    -0.0000     2.8940 cd         1 6A5       0.045400
      9 C9          -1.9830     0.0000     1.5310 cc         1 6A5      -0.338100
     10 C10         -3.3010    -0.0010     3.6910 c          1 6A5       0.620300
     11 O11         -4.3780     0.1220     3.1390 o          1 6A5      -0.646100
     12 N12         -3.2420    -0.1380     5.0300 n          1 6A5      -0.097800
     13 C13          3.5660     0.0000     1.2380 c3         1 6A5      -0.036400
     14 C14         -0.7530     0.0070    -1.2690 ca         1 6A5      -0.116000
     15 C15          2.1440    -0.0000    -1.2990 c3         1 6A5       0.044100
     16 N16          2.4960     1.3800    -1.6600 nz         1 6A5       0.029400
     17 C17         -1.3790    -1.1580    -1.7200 ca         1 6A5      -0.038000
     18 C18         -2.0810    -1.1450    -2.9060 ca         1 6A5      -0.071000
     19 C19         -2.1660     0.0180    -3.6530 ca         1 6A5      -0.018600
     20 C20         -1.5470     1.1760    -3.2140 ca         1 6A5      -0.084000
     21 C21         -0.8460     1.1800    -2.0250 ca         1 6A5      -0.041600
     22 Cl22        -0.0770     2.6350    -1.4720 cl         1 6A5      -0.035400
     23 Cl23        -3.0500     0.0240    -5.1460 cl         1 6A5       0.066600
     24 C24         -4.4700    -0.2210     5.8380 c3         1 6A5      -0.041500
     25 C25         -4.3620    -1.4440     6.7560 c3         1 6A5       0.203900
     26 O26         -3.1290    -1.3850     7.4780 os         1 6A5      -0.400600
     27 C27         -1.9640    -1.4340     6.6520 c3         1 6A5       0.203900
     28 C28         -1.9480    -0.2160     5.7280 c3         1 6A5      -0.041500
     29 H17         -1.3150    -2.0690    -1.1370 ha         1 6A5       0.129000
     30 H18         -2.5670    -2.0480    -3.2550 ha         1 6A5       0.140000
     31 H20         -1.6190     2.0830    -3.8020 ha         1 6A5       0.142000
     32 H9          -2.8160     0.0000     0.8390 h4         1 6A5       0.192000
     33 H24         -4.5720     0.6750     6.4380 h1         1 6A5       0.058950
     34 HN16         3.4890     1.4560    -1.7590 hn         1 6A5       0.234800
     35 H24A        -5.3270    -0.3300     5.1860 h1         1 6A5       0.058950
     36 HN1A         2.1840     2.0030    -0.9420 hn         1 6A5       0.234800
     37 H28         -1.7980     0.6820     6.3150 h1         1 6A5       0.058950
     38 H28A        -1.1510    -0.3210     5.0030 h1         1 6A5       0.058950
     39 H25         -5.1900    -1.4450     7.4550 h1         1 6A5       0.016200
     40 H25A        -4.3860    -2.3470     6.1570 h1         1 6A5       0.016200
     41 H27         -1.9840    -2.3380     6.0550 h1         1 6A5       0.016200
     42 H27A        -1.0790    -1.4250     7.2760 h1         1 6A5       0.016200
     43 H13          3.9320     0.9320     0.8240 hc         1 6A5       0.020700
     44 H13A         3.9340    -0.8280     0.6440 hc         1 6A5       0.020700
     45 H13B         3.9160    -0.1040     2.2580 hc         1 6A5       0.020700
     46 H15          1.5290    -0.4320    -2.0800 hx         1 6A5       0.090700
     47 H15A         3.0480    -0.5860    -1.1860 hx         1 6A5       0.090700
     48 H163         2.0550     1.6210    -2.5260 hn         1 6A5       0.234800
@<TRIPOS>BOND
     1     1     2 2   
     2     1     5 1   
     3     1    14 1   
     4     2     3 1   
     5     2    15 1   
     6     3     4 2   
     7     3    13 1   
     8     4     6 1   
     9     5     6 1   
    10     5     9 1   
    11     6     7 2   
    12     7     8 1   
    13     8     9 2   
    14     8    10 1   
    15     9    32 1   
    16    10    11 2   
    17    10    12 1   
    18    12    24 1   
    19    12    28 1   
    20    13    43 1   
    21    13    44 1   
    22    13    45 1   
    23    14    17 ar  
    24    14    21 ar  
    25    15    16 1   
    26    15    46 1   
    27    15    47 1   
    28    16    34 1   
    29    16    36 1   
    30    16    48 1   
    31    17    18 ar  
    32    17    29 1   
    33    18    19 ar  
    34    18    30 1   
    35    19    20 ar  
    36    19    23 1   
    37    20    21 ar  
    38    20    31 1   
    39    21    22 1   
    40    24    25 1   
    41    24    33 1   
    42    24    35 1   
    43    25    26 1   
    44    25    39 1   
    45    25    40 1   
    46    26    27 1   
    47    27    28 1   
    48    27    41 1   
    49    27    42 1   
    50    28    37 1   
    51    28    38 1   
@<TRIPOS>SUBSTRUCTURE
     1 6A5         1 TEMP              0 ****  ****    0 ROOT
