@<TRIPOS>MOLECULE
6A6
   44    47     1     0     0
SMALL
bcc


@<TRIPOS>ATOM
      1 C2           0.0000     0.0000     0.0000 ca         1 6A6       0.097900
      2 C3           1.3850     0.0000     0.0000 ca         1 6A6      -0.124000
      3 C4           2.0750     0.0000     1.1970 ca         1 6A6      -0.060500
      4 C5           1.3830     0.0000     2.3940 ca         1 6A6      -0.066300
      5 C6           0.0010     0.0000     2.3950 ca         1 6A6      -0.060500
      6 C7          -0.6920    -0.0010     1.1990 ca         1 6A6      -0.124000
      7 C8           2.1370     0.0000     3.6990 c3         1 6A6       0.099000
      8 C11          2.2020    -0.9360     6.0150 c3         1 6A6      -0.026400
      9 C12          1.9630     0.4560     6.6020 c3         1 6A6      -0.039400
     10 C17          1.4040     3.6890     4.2970 ca         1 6A6      -0.218600
     11 C18          0.3450     4.5420     4.0080 ca         1 6A6       0.059000
     12 C19          0.2970     5.7990     4.6080 ca         1 6A6      -0.297900
     13 C21          2.3690     5.3200     5.7740 ca         1 6A6      -0.137000
     14 F1          -0.6760     0.0050    -1.1710 f          1 6A6      -0.135900
     15 C10          1.5240    -1.0370     4.6460 c3         1 6A6      -0.050400
     16 C13          2.5800     1.5100     5.6780 c3         1 6A6      -0.011000
     17 N14          2.0400     1.3260     4.3240 n          1 6A6      -0.144800
     18 O16          1.0020     2.1830     2.5580 o          1 6A6      -0.639100
     19 C20          1.3160     6.1930     5.4980 ca         1 6A6      -0.153200
     20 C22          2.4100     4.0900     5.1890 ca         1 6A6      -0.070000
     21 N23          1.0050     7.4550     5.9230 na         1 6A6       0.430900
     22 N24         -0.1880     7.8650     5.3190 nc         1 6A6      -0.721100
     23 C25         -0.6410     6.9220     4.5370 cd         1 6A6       0.506800
     24 N26         -1.8080     6.9760     3.7720 nv         1 6A6      -0.480800
     25 H1           1.9270     0.0000    -0.9380 ha         1 6A6       0.112500
     26 H2           3.1580     0.0000     1.1980 ha         1 6A6       0.103500
     27 H3          -0.5400     0.0000     3.3340 ha         1 6A6       0.103500
     28 H4          -1.7750    -0.0010     1.2000 ha         1 6A6       0.112500
     29 H5           3.1790    -0.2420     3.5230 h1         1 6A6       0.029700
     30 H6           3.2670    -1.1000     5.9010 hc         1 6A6       0.017200
     31 H7           1.7850    -1.6830     6.6790 hc         1 6A6       0.017200
     32 H8           2.4260     0.5190     7.5800 hc         1 6A6       0.021700
     33 H9           0.8980     0.6320     6.6890 hc         1 6A6       0.021700
     34 H10         -0.3510     4.2930     3.2170 ha         1 6A6       0.119000
     35 H11          3.1520     5.6170     6.4600 ha         1 6A6       0.106000
     36 H12          0.4640    -0.8430     4.7540 hc         1 6A6       0.029700
     37 H13          1.6760    -2.0300     4.2400 hc         1 6A6       0.029700
     38 H14          3.6570     1.3890     5.6580 h1         1 6A6       0.048700
     39 H15          2.3270     2.5000     6.0380 h1         1 6A6       0.048700
     40 H16          3.2400     3.4250     5.3960 ha         1 6A6       0.130000
     41 H17          1.5460     8.0000     6.5650 hn         1 6A6       0.150700
     42 H18         -2.1600     7.8590     3.4580 hn         1 6A6       0.272300
     43 H19         -2.2860     6.1320     3.5280 hn         1 6A6       0.272300
     44 C15          1.4670     2.3540     3.6680 c          1 6A6       0.618700
@<TRIPOS>BOND
     1     1     2 ar  
     2     1     6 ar  
     3     1    14 1   
     4     2     3 ar  
     5     2    25 1   
     6     3     4 ar  
     7     3    26 1   
     8     4     5 ar  
     9     4     7 1   
    10     5     6 ar  
    11     5    27 1   
    12     6    28 1   
    13     7    15 1   
    14     7    17 1   
    15     7    29 1   
    16     8     9 1   
    17     8    15 1   
    18     8    30 1   
    19     8    31 1   
    20     9    16 1   
    21     9    32 1   
    22     9    33 1   
    23    10    11 ar  
    24    10    20 ar  
    25    10    44 1   
    26    11    12 ar  
    27    11    34 1   
    28    12    19 ar  
    29    12    23 1   
    30    13    19 ar  
    31    13    20 ar  
    32    13    35 1   
    33    15    36 1   
    34    15    37 1   
    35    16    17 1   
    36    16    38 1   
    37    16    39 1   
    38    17    44 1   
    39    18    44 2   
    40    19    21 1   
    41    20    40 1   
    42    21    22 1   
    43    21    41 1   
    44    22    23 2   
    45    23    24 1   
    46    24    42 1   
    47    24    43 1   
@<TRIPOS>SUBSTRUCTURE
     1 6A6         1 TEMP              0 ****  ****    0 ROOT
