@<TRIPOS>MOLECULE
molecule
   44    47     1     0     0
SMALL
bcc


@<TRIPOS>ATOM
      1 C2           0.0000     0.0000     0.0000 ca         1 6A6       0.127900
      2 C3           1.3850     0.0000     0.0000 ca         1 6A6      -0.159500
      3 C4           2.0750     0.0000     1.1970 ca         1 6A6      -0.085000
      4 C5           1.3830     0.0000     2.3940 ca         1 6A6      -0.063300
      5 C6           0.0010     0.0000     2.3950 ca         1 6A6      -0.085000
      6 C7          -0.6920    -0.0010     1.1990 ca         1 6A6      -0.159500
      7 C8           2.1370     0.0000     3.6990 c3         1 6A6       0.171000
      8 C11          2.2020    -0.9360     6.0150 c3         1 6A6      -0.082400
      9 C12          1.9630     0.4560     6.6020 c3         1 6A6      -0.099400
     10 C17          1.4040     3.6890     4.2970 ca         1 6A6      -0.202600
     11 C18          0.3450     4.5420     4.0080 ca         1 6A6       0.012000
     12 C19          0.2970     5.7990     4.6080 ca         1 6A6      -0.283900
     13 C21          2.3690     5.3200     5.7740 ca         1 6A6      -0.179000
     14 F1          -0.6760     0.0050    -1.1710 f          1 6A6      -0.148900
     15 C10          1.5240    -1.0370     4.6460 c3         1 6A6      -0.094400
     16 C13          2.5800     1.5100     5.6780 c3         1 6A6       0.074000
     17 N14          2.0400     1.3260     4.3240 n          1 6A6      -0.484800
     18 O16          1.0020     2.1830     2.5580 o          1 6A6      -0.595100
     19 C20          1.3160     6.1930     5.4980 ca         1 6A6       0.013800
     20 C22          2.4100     4.0900     5.1890 ca         1 6A6      -0.076000
     21 N23          1.0050     7.4550     5.9230 na         1 6A6      -0.044100
     22 N24         -0.1880     7.8650     5.3190 nc         1 6A6      -0.574100
     23 C25         -0.6410     6.9220     4.5370 cd         1 6A6       0.628800
     24 N26         -1.8080     6.9760     3.7720 nv         1 6A6      -0.971800
     25 H1           1.9270     0.0000    -0.9380 ha         1 6A6       0.138500
     26 H2           3.1580     0.0000     1.1980 ha         1 6A6       0.129500
     27 H3          -0.5400     0.0000     3.3340 ha         1 6A6       0.129500
     28 H4          -1.7750    -0.0010     1.2000 ha         1 6A6       0.138500
     29 H5           3.1790    -0.2420     3.5230 h1         1 6A6       0.055700
     30 H6           3.2670    -1.1000     5.9010 hc         1 6A6       0.044700
     31 H7           1.7850    -1.6830     6.6790 hc         1 6A6       0.044700
     32 H8           2.4260     0.5190     7.5800 hc         1 6A6       0.050700
     33 H9           0.8980     0.6320     6.6890 hc         1 6A6       0.050700
     34 H10         -0.3510     4.2930     3.2170 ha         1 6A6       0.154000
     35 H11          3.1520     5.6170     6.4600 ha         1 6A6       0.132000
     36 H12          0.4640    -0.8430     4.7540 hc         1 6A6       0.055700
     37 H13          1.6760    -2.0300     4.2400 hc         1 6A6       0.055700
     38 H14          3.6570     1.3890     5.6580 h1         1 6A6       0.063700
     39 H15          2.3270     2.5000     6.0380 h1         1 6A6       0.063700
     40 H16          3.2400     3.4250     5.3960 ha         1 6A6       0.149000
     41 H17          1.5460     8.0000     6.5650 hn         1 6A6       0.333700
     42 H18         -2.1600     7.8590     3.4580 hn         1 6A6       0.445300
     43 H19         -2.2860     6.1320     3.5280 hn         1 6A6       0.445300
     44 C15          1.4670     2.3540     3.6680 c          1 6A6       0.681700
@<TRIPOS>BOND
     1    14     1 1
     2     1     2 ar
     3     1     6 ar
     4     2     3 ar
     5     6     5 ar
     6     3     4 ar
     7    24    23 1
     8     5     4 ar
     9     4     7 1
    10    23    22 2
    11    23    12 1
    12    22    21 1
    13     7    17 1
    14     7    15 1
    15    11    12 ar
    16    11    10 ar
    17    12    19 ar
    18    16    17 1
    19    16     9 1
    20    17    44 1
    21    15     8 1
    22    21    19 1
    23    44    10 1
    24    44    18 2
    25     9     8 1
    26    10    20 ar
    27    19    13 ar
    28    20    13 ar
    29     2    25 1
    30     3    26 1
    31     5    27 1
    32     6    28 1
    33     7    29 1
    34     8    30 1
    35     8    31 1
    36     9    32 1
    37     9    33 1
    38    11    34 1
    39    13    35 1
    40    15    36 1
    41    15    37 1
    42    16    38 1
    43    16    39 1
    44    20    40 1
    45    21    41 1
    46    24    42 1
    47    24    43 1
@<TRIPOS>SUBSTRUCTURE
     1 6A6         1 TEMP              0 ****  ****    0 ROOT
