@<TRIPOS>MOLECULE
molecule
   41    44     1     0     0
SMALL
bcc


@<TRIPOS>ATOM
      1 C2           0.0000     0.0000     0.0000 ca         1 6A7       0.031400
      2 C3           1.3840     0.0000     0.0000 ca         1 6A7      -0.119500
      3 C4           2.0750     0.0000     1.1970 ca         1 6A7      -0.103500
      4 C5           1.3830    -0.0000     2.3940 ca         1 6A7      -0.090300
      5 C6           0.0010    -0.0000     2.3950 ca         1 6A7      -0.103500
      6 C7          -0.6910     0.0050     1.1980 ca         1 6A7      -0.119500
      7 C8           2.1380     0.0000     3.6990 c3         1 6A7       0.163000
      8 C11          2.0040    -1.1850     5.8060 c3         1 6A7      -0.097400
      9 C12          1.0320     0.0270     5.8210 c3         1 6A7       0.085000
     10 N13          1.4480     0.8570     4.6750 n          1 6A7      -0.493800
     11 C16          0.4140     2.8970     5.5430 ca         1 6A7      -0.321900
     12 C17          0.5800     4.2690     5.7380 ca         1 6A7       0.044000
     13 C18         -0.2250     4.8960     6.6900 ca         1 6A7      -0.379200
     14 C19         -1.1660     4.1330     7.4140 ca         1 6A7       0.499800
     15 C21         -0.5430     2.2090     6.3010 ca         1 6A7       0.480200
     16 N22         -1.7990     4.9990     8.2610 na         1 6A7      -0.144800
     17 C24         -0.3490     6.2690     7.1710 cc         1 6A7       0.390900
     18 Cl1         -0.8680     0.0000    -1.5030 cl         1 6A7      -0.112400
     19 C10          2.1750    -1.4280     4.2830 c3         1 6A7      -0.089400
     20 C14          1.2330     2.1800     4.5440 c          1 6A7       0.702700
     21 O15          1.7120     2.7840     3.6030 o          1 6A7      -0.596100
     22 N20         -1.2840     2.8290     7.1900 nb         1 6A7      -0.730000
     23 N23         -1.2780     6.2840     8.0850 nd         1 6A7      -0.493100
     24 C25          0.4510     7.4550     6.6960 c3         1 6A7      -0.096400
     25 H1           1.9250    -0.0020    -0.9380 ha         1 6A7       0.143500
     26 H2           3.1580     0.0000     1.1970 ha         1 6A7       0.136000
     27 H3          -0.5400     0.0010     3.3330 ha         1 6A7       0.136000
     28 H4          -1.7750     0.0050     1.1990 ha         1 6A7       0.143500
     29 H5           3.1480     0.3600     3.5460 h1         1 6A7       0.072700
     30 H6           2.9510    -0.9260     6.2640 hc         1 6A7       0.059700
     31 H7           1.5540    -2.0460     6.2850 hc         1 6A7       0.059700
     32 H8           1.1390     0.5820     6.7450 h1         1 6A7       0.051200
     33 H9           0.0110    -0.3090     5.6910 h1         1 6A7       0.051200
     34 H10          1.3110     4.8290     5.1680 ha         1 6A7       0.162000
     35 H11         -0.6740     1.1440     6.1510 h4         1 6A7       0.038100
     36 H12         -2.5240     4.7520     8.9060 hn         1 6A7       0.342700
     37 H13          1.3550    -2.0200     3.8960 hc         1 6A7       0.061200
     38 H14          3.1290    -1.8990     4.0770 hc         1 6A7       0.061200
     39 H15          0.1390     8.3410     7.2350 hc         1 6A7       0.058033
     40 H16          1.5040     7.2750     6.8760 hc         1 6A7       0.058033
     41 H17          0.2860     7.6000     5.6350 hc         1 6A7       0.058033
@<TRIPOS>BOND
     1    21    20 2   
     2    15    22 ar  
     3    15    11 ar  
     4    22    14 ar  
     5     9    10 1   
     6     9     8 1   
     7    20    10 1   
     8    20    11 1   
     9    10     7 1   
    10    11    12 ar  
    11     8    19 1   
    12    19     7 1   
    13    14    16 1   
    14    14    13 ar  
    15     7     4 1   
    16    16    23 1   
    17    12    13 ar  
    18    13    17 1   
    19     4     3 ar  
    20     4     5 ar  
    21    23    17 2   
    22    17    24 1   
    23     3     2 ar  
    24     5     6 ar  
    25     2     1 ar  
    26     6     1 ar  
    27     1    18 1   
    28     2    25 1   
    29     3    26 1   
    30     5    27 1   
    31     6    28 1   
    32     7    29 1   
    33     8    30 1   
    34     8    31 1   
    35     9    32 1   
    36     9    33 1   
    37    12    34 1   
    38    15    35 1   
    39    16    36 1   
    40    19    37 1   
    41    19    38 1   
    42    24    39 1   
    43    24    40 1   
    44    24    41 1   
@<TRIPOS>SUBSTRUCTURE
     1 6A7         1 TEMP              0 ****  ****    0 ROOT
