@<TRIPOS>MOLECULE
molecule
   55    55     1     0     0
SMALL
bcc


@<TRIPOS>ATOM
      1 C10          0.0000     0.0000     0.0000 c3         1 6A9      -0.079400
      2 C12         -2.0400    -0.0000     1.4420 c3         1 6A9      -0.081400
      3 C14         -4.5610     0.0010     4.1890 c3         1 6A9       0.130700
      4 C15          5.7260    -1.2420    -4.9580 c3         1 6A9       0.139800
      5 C3           7.5530     0.2140    -4.3130 c3         1 6A9       0.177500
      6 C2           8.0050     0.3520    -5.7680 c3         1 6A9       0.146100
      7 O2           9.4200     0.5410    -5.8110 oh         1 6A9      -0.611800
      8 C1           7.6340    -0.9200    -6.5360 c3         1 6A9       0.121100
      9 O1           8.0030    -0.7740    -7.9080 oh         1 6A9      -0.605800
     10 N            6.1010    -0.0010    -4.2680 n3         1 6A9      -0.718600
     11 C            6.1240    -1.1470    -6.4320 c3         1 6A9       0.136100
     12 O            5.7770    -2.3620    -7.1000 oh         1 6A9      -0.605800
     13 C5           5.6110    -0.0010    -2.8830 c3         1 6A9       0.162800
     14 C6           4.0800    -0.0010    -2.8840 c3         1 6A9      -0.082400
     15 C7           3.5700     0.0000    -1.4410 c3         1 6A9      -0.083400
     16 C8           2.0410    -0.0010    -1.4420 c3         1 6A9      -0.080400
     17 C9           1.5300     0.0000     0.0000 c3         1 6A9      -0.082400
     18 C11         -0.5110     0.0000     1.4420 c3         1 6A9      -0.081400
     19 C13         -2.5510     0.0010     2.8840 c3         1 6A9       0.137400
     20 O4          -3.9800     0.0010     2.8850 os         1 6A9      -0.431600
     21 H1          -0.3610    -0.8840    -0.5110 hc         1 6A9       0.043700
     22 H2          -0.3610     0.8840    -0.5110 hc         1 6A9       0.043700
     23 H3          -2.4010    -0.8850     0.9320 hc         1 6A9       0.053700
     24 H4          -2.4010     0.8840     0.9310 hc         1 6A9       0.053700
     25 H5          -4.2400     0.8850     4.7270 h1         1 6A9       0.028700
     26 H6          -5.6410     0.0040     4.1030 h1         1 6A9       0.028700
     27 H7          -4.2440    -0.8840     4.7260 h1         1 6A9       0.028700
     28 H8           6.2410    -2.0780    -4.5000 h1         1 6A9       0.046700
     29 H9           4.6550    -1.3860    -4.8830 h1         1 6A9       0.046700
     30 H10          7.6100     3.4100    -3.7920 ho         1 6A9       0.398000
     31 H13          8.0550    -0.6330    -3.8600 h1         1 6A9       0.041700
     32 H14          7.5080     1.2020    -6.2200 h1         1 6A9       0.077700
     33 H15          9.6360     1.1410    -6.5060 ho         1 6A9       0.415000
     34 H16          8.1560    -1.7660    -6.1040 h1         1 6A9       0.052700
     35 H17          8.5930    -1.4680    -8.1510 ho         1 6A9       0.411000
     36 H19          5.6030    -0.3160    -6.8920 h1         1 6A9       0.060700
     37 H20          5.0230    -2.2170    -7.6460 ho         1 6A9       0.408000
     38 H21          5.9720    -0.8850    -2.3710 h1         1 6A9       0.037200
     39 H22          5.9720     0.8840    -2.3720 h1         1 6A9       0.037200
     40 H23          3.7190     0.8840    -3.3950 hc         1 6A9       0.051200
     41 H24          3.7190    -0.8850    -3.3940 hc         1 6A9       0.051200
     42 H25          3.9310    -0.8840    -0.9290 hc         1 6A9       0.040700
     43 H26          3.9310     0.8850    -0.9300 hc         1 6A9       0.040700
     44 H27          1.6800    -0.8860    -1.9520 hc         1 6A9       0.043200
     45 H28          1.6800     0.8830    -1.9530 hc         1 6A9       0.043200
     46 H29          1.8910     0.8850     0.5100 hc         1 6A9       0.040700
     47 H30          1.8910    -0.8840     0.5110 hc         1 6A9       0.040700
     48 H31         -0.1500    -0.8840     1.9530 hc         1 6A9       0.040700
     49 H32         -0.1500     0.8840     1.9530 hc         1 6A9       0.040700
     50 H33         -2.1900    -0.8830     3.3960 h1         1 6A9       0.021700
     51 H34         -2.1900     0.8850     3.3950 h1         1 6A9       0.021700
     52 C4           7.9030     1.4900    -3.5460 c3         1 6A9       0.143400
     53 H11          7.5310     1.4150    -2.5320 h1         1 6A9       0.030700
     54 O3           7.3010     2.6140    -4.1930 oh         1 6A9      -0.599800
     55 H12          8.9790     1.6170    -3.5280 h1         1 6A9       0.030700
@<TRIPOS>BOND
     1     9     8 1
     2     7     6 1
     3     8     6 1
     4     8    11 1
     5     6     5 1
     6    12    11 1
     7    11     4 1
     8     5    52 1
     9     5    10 1
    10     2    19 1
    11     2    18 1
    12     4    10 1
    13    19    20 1
    14    20     3 1
    15    52    54 1
    16    10    13 1
    17    18     1 1
    18    14    13 1
    19    14    15 1
    20    16    15 1
    21    16    17 1
    22     1    17 1
    23     1    21 1
    24     1    22 1
    25     2    23 1
    26     2    24 1
    27     3    25 1
    28     3    26 1
    29     3    27 1
    30     4    28 1
    31     4    29 1
    32    54    30 1
    33    52    53 1
    34    52    55 1
    35     5    31 1
    36     6    32 1
    37     7    33 1
    38     8    34 1
    39     9    35 1
    40    11    36 1
    41    12    37 1
    42    13    38 1
    43    13    39 1
    44    14    40 1
    45    14    41 1
    46    15    42 1
    47    15    43 1
    48    16    44 1
    49    16    45 1
    50    17    46 1
    51    17    47 1
    52    18    48 1
    53    18    49 1
    54    19    50 1
    55    19    51 1
@<TRIPOS>SUBSTRUCTURE
     1 6A9         1 TEMP              0 ****  ****    0 ROOT
