@<TRIPOS>MOLECULE
6A9
   55    55     1     0     0
SMALL
bcc


@<TRIPOS>ATOM
      1 C10          0.0000     0.0000     0.0000 c3         1 6A9      -0.027400
      2 C12         -2.0400    -0.0000     1.4420 c3         1 6A9      -0.035400
      3 C14         -4.5610     0.0010     4.1890 c3         1 6A9       0.255700
      4 C15          5.7260    -1.2420    -4.9580 c3         1 6A9       0.115800
      5 C3           7.5530     0.2140    -4.3130 c3         1 6A9       0.117500
      6 C2           8.0050     0.3520    -5.7680 c3         1 6A9       0.179100
      7 O2           9.4200     0.5410    -5.8110 oh         1 6A9      -0.591800
      8 C1           7.6340    -0.9200    -6.5360 c3         1 6A9       0.151100
      9 O1           8.0030    -0.7740    -7.9080 oh         1 6A9      -0.585800
     10 N            6.1010    -0.0010    -4.2680 n3         1 6A9      -0.517600
     11 C            6.1240    -1.1470    -6.4320 c3         1 6A9       0.175100
     12 O            5.7770    -2.3620    -7.1000 oh         1 6A9      -0.585800
     13 C5           5.6110    -0.0010    -2.8830 c3         1 6A9       0.138800
     14 C6           4.0800    -0.0010    -2.8840 c3         1 6A9      -0.036400
     15 C7           3.5700     0.0000    -1.4410 c3         1 6A9      -0.027400
     16 C8           2.0410    -0.0010    -1.4420 c3         1 6A9      -0.028400
     17 C9           1.5300     0.0000     0.0000 c3         1 6A9      -0.029400
     18 C11         -0.5110     0.0000     1.4420 c3         1 6A9      -0.024400
     19 C13         -2.5510     0.0010     2.8840 c3         1 6A9       0.211400
     20 O4          -3.9800     0.0010     2.8850 os         1 6A9      -0.418600
     21 H1          -0.3610    -0.8840    -0.5110 hc         1 6A9       0.016200
     22 H2          -0.3610     0.8840    -0.5110 hc         1 6A9       0.016200
     23 H3          -2.4010    -0.8850     0.9320 hc         1 6A9       0.022700
     24 H4          -2.4010     0.8840     0.9310 hc         1 6A9       0.022700
     25 H5          -4.2400     0.8850     4.7270 h1         1 6A9      -0.014300
     26 H6          -5.6410     0.0040     4.1030 h1         1 6A9      -0.014300
     27 H7          -4.2440    -0.8840     4.7260 h1         1 6A9      -0.014300
     28 H8           6.2410    -2.0780    -4.5000 h1         1 6A9       0.022200
     29 H9           4.6550    -1.3860    -4.8830 h1         1 6A9       0.022200
     30 H10          7.6100     3.4100    -3.7920 ho         1 6A9       0.385000
     31 H13          8.0550    -0.6330    -3.8600 h1         1 6A9       0.021700
     32 H14          7.5080     1.2020    -6.2200 h1         1 6A9       0.040700
     33 H15          9.6360     1.1410    -6.5060 ho         1 6A9       0.400000
     34 H16          8.1560    -1.7660    -6.1040 h1         1 6A9       0.018700
     35 H17          8.5930    -1.4680    -8.1510 ho         1 6A9       0.397000
     36 H19          5.6030    -0.3160    -6.8920 h1         1 6A9       0.023700
     37 H20          5.0230    -2.2170    -7.6460 ho         1 6A9       0.394000
     38 H21          5.9720    -0.8850    -2.3710 h1         1 6A9       0.016200
     39 H22          5.9720     0.8840    -2.3720 h1         1 6A9       0.016200
     40 H23          3.7190     0.8840    -3.3950 hc         1 6A9       0.025200
     41 H24          3.7190    -0.8850    -3.3940 hc         1 6A9       0.025200
     42 H25          3.9310    -0.8840    -0.9290 hc         1 6A9       0.013700
     43 H26          3.9310     0.8850    -0.9300 hc         1 6A9       0.013700
     44 H27          1.6800    -0.8860    -1.9520 hc         1 6A9       0.015700
     45 H28          1.6800     0.8830    -1.9530 hc         1 6A9       0.015700
     46 H29          1.8910     0.8850     0.5100 hc         1 6A9       0.014200
     47 H30          1.8910    -0.8840     0.5110 hc         1 6A9       0.014200
     48 H31         -0.1500    -0.8840     1.9530 hc         1 6A9       0.013700
     49 H32         -0.1500     0.8840     1.9530 hc         1 6A9       0.013700
     50 H33         -2.1900    -0.8830     3.3960 h1         1 6A9      -0.011300
     51 H34         -2.1900     0.8850     3.3950 h1         1 6A9      -0.011300
     52 C4           7.9030     1.4900    -3.5460 c3         1 6A9       0.213400
     53 H11          7.5310     1.4150    -2.5320 h1         1 6A9      -0.001300
     54 O3           7.3010     2.6140    -4.1930 oh         1 6A9      -0.581800
     55 H12          8.9790     1.6170    -3.5280 h1         1 6A9      -0.001300
@<TRIPOS>BOND
     1     1    17 1   
     2     1    18 1   
     3     1    21 1   
     4     1    22 1   
     5     2    18 1   
     6     2    19 1   
     7     2    23 1   
     8     2    24 1   
     9     3    20 1   
    10     3    25 1   
    11     3    26 1   
    12     3    27 1   
    13     4    10 1   
    14     4    11 1   
    15     4    28 1   
    16     4    29 1   
    17     5     6 1   
    18     5    10 1   
    19     5    31 1   
    20     5    52 1   
    21     6     7 1   
    22     6     8 1   
    23     6    32 1   
    24     7    33 1   
    25     8     9 1   
    26     8    11 1   
    27     8    34 1   
    28     9    35 1   
    29    10    13 1   
    30    11    12 1   
    31    11    36 1   
    32    12    37 1   
    33    13    14 1   
    34    13    38 1   
    35    13    39 1   
    36    14    15 1   
    37    14    40 1   
    38    14    41 1   
    39    15    16 1   
    40    15    42 1   
    41    15    43 1   
    42    16    17 1   
    43    16    44 1   
    44    16    45 1   
    45    17    46 1   
    46    17    47 1   
    47    18    48 1   
    48    18    49 1   
    49    19    20 1   
    50    19    50 1   
    51    19    51 1   
    52    30    54 1   
    53    52    53 1   
    54    52    54 1   
    55    52    55 1   
@<TRIPOS>SUBSTRUCTURE
     1 6A9         1 TEMP              0 ****  ****    0 ROOT
