@<TRIPOS>MOLECULE
molecule
   16    16     1     0     0
SMALL
bcc


@<TRIPOS>ATOM
      1 C1'          0.0000     0.0000     0.0000 c          1 6AB       0.887200
      2 O1'          1.2140     0.0000     0.0000 o          1 6AB      -0.842300
      3 O2'         -0.6730     0.0000     1.1670 o          1 6AB      -0.842300
      4 C1          -0.7370     0.0010    -1.2760 ca         1 6AB      -0.138600
      5 C2          -2.1300     0.1250    -1.2830 ca         1 6AB      -0.080000
      6 C3          -2.8120     0.1240    -2.4790 ca         1 6AB      -0.189000
      7 C4          -2.1260     0.0070    -3.6770 ca         1 6AB      -0.141000
      8 C5          -0.7520    -0.1100    -3.6860 ca         1 6AB      -0.200000
      9 C6          -0.0450    -0.1120    -2.4900 ca         1 6AB       0.195600
     10 N6           1.3380    -0.2300    -2.4980 nv         1 6AB      -0.943200
     11 H2          -2.6710     0.2170    -0.3490 ha         1 6AB       0.150000
     12 H3          -3.8910     0.2180    -2.4830 ha         1 6AB       0.100000
     13 H4          -2.6720     0.0070    -4.6130 ha         1 6AB       0.096000
     14 H5          -0.2230    -0.1990    -4.6270 ha         1 6AB       0.105000
     15 HN61         1.8970     0.4710    -2.9420 hn         1 6AB       0.421800
     16 HN62         1.7750    -1.0200    -2.0660 hn         1 6AB       0.421800
@<TRIPOS>BOND
     1     1     2 1   
     2     1     3 1   
     3     1     4 1   
     4     4     5 ar  
     5     4     9 ar  
     6     5     6 ar  
     7     5    11 1   
     8     6     7 ar  
     9     6    12 1   
    10     7     8 ar  
    11     7    13 1   
    12     8     9 ar  
    13     8    14 1   
    14     9    10 1   
    15    10    15 1   
    16    10    16 1   
@<TRIPOS>SUBSTRUCTURE
     1 6AB         1 TEMP              0 ****  ****    0 ROOT
