@<TRIPOS>MOLECULE
molecule
    7     6     1     0     0
SMALL
bcc


@<TRIPOS>ATOM
      1 N1          -1.3000    -0.0110     2.2150 n1         1 6AC      -0.361800
      2 C1          -0.7170     0.0000     1.2400 cg         1 6AC       0.183500
      3 C2           0.0000     0.0000     0.0000 ce         1 6AC      -0.073700
      4 C3           1.3300     0.0000     0.0000 c2         1 6AC      -0.160000
      5 H1          -0.5220     0.0960    -0.9440 ha         1 6AC       0.151000
      6 H2           1.7180    -0.3540    -0.9470 ha         1 6AC       0.131000
      7 H3           1.8010    -0.1750     0.9600 ha         1 6AC       0.131000
@<TRIPOS>BOND
     1     1     2 3
     2     2     3 1
     3     3     4 2
     4     3     5 1
     5     4     6 1
     6     4     7 1
@<TRIPOS>SUBSTRUCTURE
     1 6AC         1 TEMP              0 ****  ****    0 ROOT
