@<TRIPOS>MOLECULE
6AC
    7     6     1     0     0
SMALL
bcc


@<TRIPOS>ATOM
      1 N1          -1.2980    -0.0140     2.2160 n1         1 6AC      -0.379800
      2 C1          -0.7170     0.0000     1.2400 cg         1 6AC       0.174500
      3 C2           0.0000     0.0000     0.0000 ce         1 6AC       0.007300
      4 C3           1.3300     0.0000     0.0000 c2         1 6AC      -0.105000
      5 H1          -0.5410     0.0000    -0.9380 ha         1 6AC       0.119000
      6 H2           1.8720     0.0000     0.9380 ha         1 6AC       0.092000
      7 H3           1.8720     0.0000    -0.9380 ha         1 6AC       0.092000
@<TRIPOS>BOND
     1     1     2 3   
     2     2     3 1   
     3     3     4 2   
     4     3     5 1   
     5     4     6 1   
     6     4     7 1   
@<TRIPOS>SUBSTRUCTURE
     1 6AC         1 TEMP              0 ****  ****    0 ROOT
