@<TRIPOS>MOLECULE
molecule
   43    45     1     0     0
SMALL
bcc


@<TRIPOS>ATOM
      1 O2B          0.0000     0.0000     0.0000 o          1 6AD      -0.884167
      2 PB           1.6100     0.0000     0.0000 p5         1 6AD       1.316900
      3 O3B          2.1460     0.0000     1.5180 o          1 6AD      -0.884167
      4 O1B          2.1030    -1.2090    -0.6970 o          1 6AD      -0.884167
      5 O3A          2.1470     1.3130    -0.7600 os         1 6AD      -0.711800
      6 PA           3.5460     1.7140    -1.4490 p5         1 6AD       1.428800
      7 O2A          3.6290     1.0550    -2.9160 o          1 6AD      -0.861000
      8 O1A          4.6660     1.2120    -0.6200 o          1 6AD      -0.861000
      9 O5'          3.6450     3.3160    -1.5730 os         1 6AD      -0.584200
     10 C5'          4.8130     3.9890    -2.0470 c3         1 6AD       0.239400
     11 C4'          4.5700     5.4990    -2.0370 c3         1 6AD       0.123100
     12 O4'          4.5010     5.9890    -0.6810 os         1 6AD      -0.369600
     13 C3'          5.7710     6.2410    -2.6650 c3         1 6AD       0.081100
     14 O3'          5.5010     6.5690    -4.0280 oh         1 6AD      -0.580800
     15 C2'          5.9060     7.5230    -1.8130 c3         1 6AD       0.076100
     16 O2'          5.7210     8.6850    -2.6240 oh         1 6AD      -0.571800
     17 C1'          4.7690     7.4050    -0.7730 c3         1 6AD       0.251800
     18 N9           5.2100     7.9250     0.5240 na         1 6AD      -0.245000
     19 C8           5.7810     7.2050     1.5320 cc         1 6AD       0.436700
     20 N7           6.0460     7.9840     2.5400 nd         1 6AD      -0.618100
     21 C5           5.6630     9.2510     2.2450 ca         1 6AD      -0.220200
     22 C4           5.1260     9.2280     0.9450 ca         1 6AD       0.476800
     23 N3           4.6720    10.3580     0.4130 nb         1 6AD      -0.753000
     24 C2           4.7230    11.4920     1.0950 ca         1 6AD       0.777300
     25 S1           4.1080    12.9640     0.3470 ss         1 6AD      -0.300400
     26 C11          4.4190    14.1480     1.6800 c3         1 6AD      -0.016000
     27 N1           5.2200    11.5580     2.3250 nb         1 6AD      -0.852000
     28 C6           5.7040    10.4780     2.9280 ca         1 6AD       0.749200
     29 N6           6.2190    10.5560     4.2100 nv         1 6AD      -1.007500
     30 H4           5.6520     3.7530    -1.4040 h1         1 6AD       0.029700
     31 H5           5.0310     3.6650    -3.0580 h1         1 6AD       0.029700
     32 H6           3.6590     5.7440    -2.5700 h1         1 6AD       0.083700
     33 H7           6.6690     5.6400    -2.5840 h1         1 6AD       0.047700
     34 H8           6.1990     6.2460    -4.5740 ho         1 6AD       0.388000
     35 H9           6.8690     7.5480    -1.3180 h1         1 6AD       0.039700
     36 H10          6.5620     9.0230    -2.8850 ho         1 6AD       0.386000
     37 H11          3.8880     7.9320    -1.1180 h2         1 6AD       0.101700
     38 H12          5.9830     6.1410     1.4990 h5         1 6AD       0.107800
     39 H13          5.4800    14.1760     1.8980 h1         1 6AD       0.055367
     40 H14          3.8750    13.8440     2.5660 h1         1 6AD       0.055367
     41 H15          4.0880    15.1330     1.3730 h1         1 6AD       0.055367
     42 H16          6.5750     9.7340     4.6570 hn         1 6AD       0.433300
     43 H17          6.2380    11.4340     4.6890 hn         1 6AD       0.433300
@<TRIPOS>BOND
     1    26    25 1   
     2    25    24 1   
     3    27    24 ar  
     4    27    28 ar  
     5    24    23 ar  
     6    29    28 1   
     7    28    21 ar  
     8    23    22 ar  
     9    21    22 ar  
    10    21    20 1   
    11    22    18 1   
    12    20    19 2   
    13    18    19 1   
    14    18    17 1   
    15    12    17 1   
    16    12    11 1   
    17    17    15 1   
    18    11    10 1   
    19    11    13 1   
    20     8     6 1   
    21    15    16 1   
    22    15    13 1   
    23    10     9 1   
    24    14    13 1   
    25     9     6 1   
    26     6     7 1   
    27     6     5 1   
    28     4     2 1   
    29     5     2 1   
    30     3     2 1   
    31     2     1 1   
    32    10    30 1   
    33    10    31 1   
    34    11    32 1   
    35    13    33 1   
    36    14    34 1   
    37    15    35 1   
    38    16    36 1   
    39    17    37 1   
    40    19    38 1   
    41    26    39 1   
    42    26    40 1   
    43    26    41 1   
    44    29    42 1   
    45    29    43 1   
@<TRIPOS>SUBSTRUCTURE
     1 6AD         1 TEMP              0 ****  ****    0 ROOT
