@<TRIPOS>MOLECULE
6AE
   43    44     1     0     0
SMALL
bcc


@<TRIPOS>ATOM
      1 C5           0.0000     0.0000     0.0000 ca         1 6AE      -0.267500
      2 C6           1.3830     0.0000     0.0000 ca         1 6AE       0.035500
      3 C7           2.0760     0.0000     1.1940 ca         1 6AE      -0.149500
      4 C8           1.3820     0.0010     2.3980 ca         1 6AE       0.119600
      5 C10         -0.6930     0.0080     1.1970 ca         1 6AE       0.035500
      6 C15          0.5490    -1.9560     6.8280 ca         1 6AE      -0.463600
      7 C20          2.9840    -2.0730    10.3210 c3         1 6AE       0.182100
      8 C22          4.1040    -2.8360     9.6110 c3         1 6AE      -0.036100
      9 O21          3.4920    -0.8320    10.8150 oh         1 6AE      -0.589800
     10 C19          1.8460    -1.8020     9.3350 c3         1 6AE       0.113500
     11 C23          0.7830    -0.9330    10.0100 c3         1 6AE      -0.015100
     12 N18          2.3740    -1.1040     8.1600 nu         1 6AE      -0.452900
     13 C14          1.7160    -1.1990     6.9440 ca         1 6AE       0.583200
     14 N13          2.1870    -0.5700     5.8720 nb         1 6AE      -0.733000
     15 C16         -0.0700    -2.0280     5.5960 ca         1 6AE       0.524200
     16 N17          0.4580    -1.3800     4.5670 nb         1 6AE      -0.764000
     17 C12          1.5600    -0.6600     4.7080 ca         1 6AE       0.723900
     18 N11          2.0800     0.0030     3.6100 nu         1 6AE      -0.274300
     19 C9          -0.0070     0.0030     2.3950 ca         1 6AE      -0.149500
     20 S1          -0.8790    -0.0000    -1.5270 sy         1 6AE       0.930200
     21 O2          -2.1620     0.5450    -1.2500 o          1 6AE      -0.502800
     22 O3           0.0030     0.5430    -2.4990 o          1 6AE      -0.502800
     23 N4          -1.1250    -1.5820    -1.9500 nz         1 6AE      -0.134500
     24 H1           1.9240    -0.0040    -0.9390 ha         1 6AE       0.120500
     25 H2           3.1590     0.0000     1.1920 ha         1 6AE       0.147500
     26 H3          -1.7770     0.0090     1.1940 ha         1 6AE       0.120500
     27 H4           0.1380    -2.4770     7.6850 ha         1 6AE       0.144000
     28 H5           2.6110    -2.6650    11.1480 h1         1 6AE       0.015700
     29 H6           3.6890    -3.3990     8.7840 hc         1 6AE       0.016700
     30 H7           4.5780    -3.5150    10.3090 hc         1 6AE       0.016700
     31 H8           4.8390    -2.1330     9.2360 hc         1 6AE       0.016700
     32 H9           3.7630    -0.9370    11.7110 ho         1 6AE       0.404000
     33 H10          1.4030    -2.7410     9.0280 h1         1 6AE       0.046700
     34 H11          0.8630     0.0840     9.6460 hc         1 6AE       0.017033
     35 H12          0.9330    -0.9460    11.0820 hc         1 6AE       0.017033
     36 H13         -0.2010    -1.3220     9.7780 hc         1 6AE       0.017033
     37 H14          3.1920    -0.5320     8.2430 hn         1 6AE       0.318800
     38 H15         -0.9740    -2.6110     5.4700 h4         1 6AE      -0.018900
     39 H16          2.9420     0.5050     3.6900 hn         1 6AE       0.308800
     40 H17         -0.5510     0.0070     3.3310 ha         1 6AE       0.147500
     41 H18         -1.6670    -2.0370    -1.2420 hn         1 6AE       0.311800
     42 H19         -0.2420    -2.0440    -2.0430 hn         1 6AE       0.311800
     43 H43         -1.6150    -1.6220    -2.8220 hn         1 6AE       0.311800
@<TRIPOS>BOND
     1     1     2 ar  
     2     1     5 ar  
     3     1    20 1   
     4     2     3 ar  
     5     2    24 1   
     6     3     4 ar  
     7     3    25 1   
     8     4    18 1   
     9     4    19 ar  
    10     5    19 ar  
    11     5    26 1   
    12     6    13 ar  
    13     6    15 ar  
    14     6    27 1   
    15     7     8 1   
    16     7     9 1   
    17     7    10 1   
    18     7    28 1   
    19     8    29 1   
    20     8    30 1   
    21     8    31 1   
    22     9    32 1   
    23    10    11 1   
    24    10    12 1   
    25    10    33 1   
    26    11    34 1   
    27    11    35 1   
    28    11    36 1   
    29    12    13 1   
    30    12    37 1   
    31    13    14 ar  
    32    14    17 ar  
    33    15    16 ar  
    34    15    38 1   
    35    16    17 ar  
    36    17    18 1   
    37    18    39 1   
    38    19    40 1   
    39    20    21 2   
    40    20    22 2   
    41    20    23 1   
    42    23    41 1   
    43    23    42 1   
    44    23    43 1   
@<TRIPOS>SUBSTRUCTURE
     1 6AE         1 TEMP              0 ****  ****    0 ROOT
