@<TRIPOS>MOLECULE
6AF
   47    49     1     0     0
SMALL
bcc


@<TRIPOS>ATOM
      1 C5           0.0000     0.0000     0.0000 ca         1 6AF       0.740900
      2 C7          -0.0840     0.0070     2.3030 ca         1 6AF       0.535200
      3 C10         -2.7170     0.8850    -0.2720 ca         1 6AF      -0.145500
      4 C13         -4.1830    -0.4190    -2.2260 ca         1 6AF       0.015000
      5 C20         -7.9440    -0.4060     1.0630 cx         1 6AF      -0.014900
      6 C22          4.0020    -0.0070    -0.1390 c3         1 6AF       0.162100
      7 C26          4.2250    -1.4490    -0.5980 c3         1 6AF      -0.024100
      8 C19         -8.6600     0.8780     0.6390 cx         1 6AF      -0.014900
      9 C18         -7.1540     0.7310     0.4130 cx         1 6AF      -0.022900
     10 N16         -7.1580    -0.7950    -1.8010 n2         1 6AF      -0.765900
     11 O17         -6.9400     1.5260    -2.1920 o          1 6AF      -0.583800
     12 C12         -4.8260     0.3500    -1.2730 ca         1 6AF      -0.115500
     13 C14         -2.8070    -0.5290    -2.2130 ca         1 6AF      -0.145500
     14 C11         -4.0930     1.0000    -0.2960 ca         1 6AF       0.015000
     15 C9          -2.0690     0.1190    -1.2310 ca         1 6AF       0.044600
     16 N8          -0.6760     0.0010    -1.2090 nu         1 6AF      -0.283300
     17 N4           1.3250     0.0000     0.0000 nb         1 6AF      -0.768000
     18 N6          -0.6940     0.0060     1.1280 nb         1 6AF      -0.720000
     19 C2           1.2990     0.0000     2.3460 ca         1 6AF      -0.316500
     20 Br1          2.2150     0.0000     4.0010 br         1 6AF      -0.066100
     21 C3           2.0020     0.0000     1.1410 ca         1 6AF       0.718600
     22 O21          3.3580    -0.0070     1.1360 os         1 6AF      -0.382100
     23 C23          5.3500     0.7080    -0.0300 c3         1 6AF       0.186100
     24 C25          5.1390     2.1090     0.5470 c3         1 6AF      -0.034100
     25 O24          6.2150    -0.0360     0.8310 oh         1 6AF      -0.574800
     26 H1          -0.6600     0.0120     3.2200 h4         1 6AF      -0.005900
     27 H2          -2.1440     1.3930     0.4940 ha         1 6AF       0.126500
     28 H3          -4.7590    -0.9240    -2.9920 ha         1 6AF       0.108000
     29 H5          -7.7960    -0.5280     2.1290 hc         1 6AF       0.059200
     30 H6           3.3770     0.5080    -0.8580 h1         1 6AF       0.042700
     31 H7           5.2850    -1.6240    -0.7370 hc         1 6AF       0.016700
     32 H8           3.7060    -1.6150    -1.5340 hc         1 6AF       0.016700
     33 H9           3.8420    -2.1300     0.1530 hc         1 6AF       0.016700
     34 H10         -8.9500     1.5400     1.4460 hc         1 6AF       0.059200
     35 H11         -9.2760     0.7980    -0.2490 hc         1 6AF       0.059200
     36 H12         -6.5360     1.3020     1.0950 h1         1 6AF       0.089700
     37 H13         -7.3230    -0.9180    -2.7800 hn         1 6AF       0.408400
     38 H16         -2.3040    -1.1290    -2.9620 ha         1 6AF       0.126500
     39 H17         -4.5990     1.6000     0.4510 ha         1 6AF       0.108000
     40 H18         -0.1670    -0.0820    -2.0670 hn         1 6AF       0.296800
     41 H19          5.7980     0.7860    -1.0130 h1         1 6AF       0.006700
     42 H20          4.8970     2.0340     1.6000 hc         1 6AF       0.014367
     43 H21          4.3250     2.5970     0.0240 hc         1 6AF       0.014367
     44 H22          6.0450     2.6900     0.4260 hc         1 6AF       0.014367
     45 H23          7.1130     0.1370     0.6000 ho         1 6AF       0.388000
     46 S15         -6.5830     0.4870    -1.2920 sy         1 6AF       0.531000
     47 H4          -8.1220    -1.2700     0.4340 hc         1 6AF       0.059200
@<TRIPOS>BOND
     1     1    16 1   
     2     1    17 ar  
     3     1    18 ar  
     4     2    18 ar  
     5     2    19 ar  
     6     2    26 1   
     7     3    14 ar  
     8     3    15 ar  
     9     3    27 1   
    10     4    12 ar  
    11     4    13 ar  
    12     4    28 1   
    13     5     8 1   
    14     5     9 1   
    15     5    29 1   
    16     5    47 1   
    17     6     7 1   
    18     6    22 1   
    19     6    23 1   
    20     6    30 1   
    21     7    31 1   
    22     7    32 1   
    23     7    33 1   
    24     8     9 1   
    25     8    34 1   
    26     8    35 1   
    27     9    36 1   
    28     9    46 1   
    29    10    37 1   
    30    10    46 2   
    31    11    46 2   
    32    12    14 ar  
    33    12    46 1   
    34    13    15 ar  
    35    13    38 1   
    36    14    39 1   
    37    15    16 1   
    38    16    40 1   
    39    17    21 ar  
    40    19    20 1   
    41    19    21 ar  
    42    21    22 1   
    43    23    24 1   
    44    23    25 1   
    45    23    41 1   
    46    24    42 1   
    47    24    43 1   
    48    24    44 1   
    49    25    45 1   
@<TRIPOS>SUBSTRUCTURE
     1 6AF         1 TEMP              0 ****  ****    0 ROOT
