@<TRIPOS>MOLECULE
molecule
   47    49     1     0     0
SMALL
bcc


@<TRIPOS>ATOM
      1 C5           0.0000     0.0000     0.0000 ca         1 6AF       0.976900
      2 C7          -0.0840     0.0070     2.3030 ca         1 6AF       0.543200
      3 C10         -2.7170     0.8850    -0.2720 ca         1 6AF      -0.161000
      4 C13         -4.1830    -0.4190    -2.2260 ca         1 6AF      -0.019000
      5 C20         -7.9440    -0.4060     1.0630 cx         1 6AF      -0.071400
      6 C22          4.0020    -0.0070    -0.1390 c3         1 6AF       0.147100
      7 C26          4.2250    -1.4490    -0.5980 c3         1 6AF      -0.108100
      8 C19         -8.6600     0.8780     0.6390 cx         1 6AF      -0.071400
      9 C18         -7.1540     0.7310     0.4130 cx         1 6AF      -0.208900
     10 N16         -7.1580    -0.7950    -1.8010 n2         1 6AF      -0.946900
     11 O17         -6.9400     1.5260    -2.1920 o          1 6AF      -0.639800
     12 C12         -4.8260     0.3500    -1.2730 ca         1 6AF      -0.281500
     13 C14         -2.8070    -0.5290    -2.2130 ca         1 6AF      -0.161000
     14 C11         -4.0930     1.0000    -0.2960 ca         1 6AF      -0.019000
     15 C9          -2.0690     0.1190    -1.2310 ca         1 6AF       0.207600
     16 N8          -0.6760     0.0010    -1.2090 nu         1 6AF      -0.752300
     17 N4           1.3250     0.0000     0.0000 nb         1 6AF      -0.871000
     18 N6          -0.6940     0.0060     1.1280 nb         1 6AF      -0.811000
     19 C2           1.2990     0.0000     2.3460 ca         1 6AF      -0.342500
     20 Br1          2.2150     0.0000     4.0010 br         1 6AF      -0.057100
     21 C3           2.0020     0.0000     1.1410 ca         1 6AF       0.751600
     22 O21          3.3580    -0.0070     1.1360 os         1 6AF      -0.396100
     23 C23          5.3500     0.7080    -0.0300 c3         1 6AF       0.147100
     24 C25          5.1390     2.1090     0.5470 c3         1 6AF      -0.124100
     25 O24          6.2150    -0.0360     0.8310 oh         1 6AF      -0.592800
     26 H1          -0.6600     0.0120     3.2200 h4         1 6AF       0.047100
     27 H2          -2.1440     1.3930     0.4940 ha         1 6AF       0.150500
     28 H3          -4.7590    -0.9240    -2.9920 ha         1 6AF       0.137500
     29 H5          -8.1220    -1.2700     0.4340 hc         1 6AF       0.095950
     30 H6           3.3770     0.5080    -0.8580 h1         1 6AF       0.076700
     31 H7           3.8430    -2.1300     0.1530 hc         1 6AF       0.049700
     32 H8           5.2850    -1.6240    -0.7380 hc         1 6AF       0.049700
     33 H9           3.7050    -1.6150    -1.5330 hc         1 6AF       0.049700
     34 H10         -8.9500     1.5400     1.4460 hc         1 6AF       0.095950
     35 H11         -9.2760     0.7980    -0.2490 hc         1 6AF       0.095950
     36 H12         -6.5360     1.3020     1.0950 h1         1 6AF       0.119700
     37 H13         -7.3250    -0.9170    -2.7800 hn         1 6AF       0.472400
     38 H16         -2.3040    -1.1290    -2.9620 ha         1 6AF       0.150500
     39 H17         -4.5990     1.6000     0.4510 ha         1 6AF       0.137500
     40 H18         -0.1670    -0.0830    -2.0670 hn         1 6AF       0.471800
     41 H19          5.7980     0.7860    -1.0130 h1         1 6AF       0.041700
     42 H20          4.2870     2.5740     0.0650 hc         1 6AF       0.047700
     43 H21          4.9560     2.0370     1.6130 hc         1 6AF       0.047700
     44 H22          6.0240     2.7090     0.3720 hc         1 6AF       0.047700
     45 H23          7.1130     0.1670     0.6250 ho         1 6AF       0.401000
     46 S15         -6.5830     0.4870    -1.2920 sy         1 6AF       0.983000
     47 H4          -7.7960    -0.5280     2.1290 hc         1 6AF       0.095950
@<TRIPOS>BOND
     1     2    18 ar  
     2     2    19 ar  
     3    20    19 1   
     4    18     1 ar  
     5    19    21 ar  
     6     1    16 1   
     7     1    17 ar  
     8    21    17 ar  
     9    21    22 1   
    10    16    15 1   
    11    22     6 1   
    12    24    23 1   
    13    15     3 ar  
    14    15    13 ar  
    15     3    14 ar  
    16     6    23 1   
    17     6     7 1   
    18    23    25 1   
    19    13     4 ar  
    20    14    12 ar  
    21     4    12 ar  
    22    12    46 1   
    23    10    46 2   
    24    46    11 2   
    25    46     9 1   
    26     9     8 1   
    27     9     5 1   
    28     8     5 1   
    29     2    26 1   
    30     3    27 1   
    31     4    28 1   
    32     5    47 1   
    33     5    29 1   
    34     6    30 1   
    35     7    31 1   
    36     7    32 1   
    37     7    33 1   
    38     8    34 1   
    39     8    35 1   
    40     9    36 1   
    41    10    37 1   
    42    13    38 1   
    43    14    39 1   
    44    16    40 1   
    45    23    41 1   
    46    24    42 1   
    47    24    43 1   
    48    24    44 1   
    49    25    45 1   
@<TRIPOS>SUBSTRUCTURE
     1 6AF         1 TEMP              0 ****  ****    0 ROOT
