@<TRIPOS>MOLECULE
molecule
   24    23     1     0     0
SMALL
bcc


@<TRIPOS>ATOM
      1 O            0.0000     0.0000     0.0000 oh         1 6AH      -0.605800
      2 C1           1.4290     0.0000     0.0000 c3         1 6AH       0.145400
      3 C2           1.9380     0.0000     1.4420 c3         1 6AH      -0.080400
      4 C3           3.4690     0.0010     1.4430 c3         1 6AH      -0.080400
      5 C4           3.9780     0.0010     2.8850 c3         1 6AH      -0.073400
      6 C5           5.5080     0.0020     2.8860 c3         1 6AH      -0.112400
      7 C6           6.0180     0.0010     4.3280 c3         1 6AH       0.089800
      8 N            7.4870     0.0020     4.3290 nz         1 6AH      -0.810600
      9 H1          -0.3140    -0.0000    -0.8890 ho         1 6AH       0.414000
     10 H2           1.5760     0.8840     1.9530 hc         1 6AH       0.060700
     11 H3           1.5780    -0.8850     1.9530 hc         1 6AH       0.060700
     12 H4           3.8310    -0.8830     0.9320 hc         1 6AH       0.049700
     13 H5           3.8290     0.8860     0.9330 hc         1 6AH       0.049700
     14 H6           3.6170     0.8850     3.3960 hc         1 6AH       0.059700
     15 H7           3.6180    -0.8840     3.3960 hc         1 6AH       0.059700
     16 H8           5.8690     0.8880     2.3760 hc         1 6AH       0.065700
     17 H9           5.8700    -0.8820     2.3740 hc         1 6AH       0.065700
     18 H10          5.6560     0.8850     4.8390 hx         1 6AH       0.113700
     19 H11          5.6570    -0.8840     4.8380 hx         1 6AH       0.113700
     20 H12          7.8210    -0.8150     3.8560 hn         1 6AH       0.457133
     21 H13          7.8200     0.0020     5.2720 hn         1 6AH       0.457133
     22 H16          1.7900    -0.8850    -0.5110 h1         1 6AH       0.022700
     23 H14          1.7900     0.8850    -0.5110 h1         1 6AH       0.022700
     24 HN3          7.8200     0.8270     3.8710 hn         1 6AH       0.457133
@<TRIPOS>BOND
     1     3     4 1
     2     3     2 1
     3     5     4 1
     4     5     6 1
     5     1     2 1
     6     7     6 1
     7     7     8 1
     8     1     9 1
     9     3    10 1
    10     3    11 1
    11     4    12 1
    12     4    13 1
    13     5    14 1
    14     5    15 1
    15     6    16 1
    16     6    17 1
    17     7    18 1
    18     7    19 1
    19     8    20 1
    20     8    21 1
    21     2    22 1
    22     2    23 1
    23    24     8 1
@<TRIPOS>SUBSTRUCTURE
     1 6AH         1 TEMP              0 ****  ****    0 ROOT
