@<TRIPOS>MOLECULE
molecule
   17    18     1     0     0
SMALL
bcc


@<TRIPOS>ATOM
      1 NAA          0.0000     0.0000     0.0000 nv         1 6AI      -0.974200
      2 CAB          2.3760     0.0000     0.4390 ca         1 6AI      -0.196000
      3 CAC          3.6660     0.0000     0.0000 ca         1 6AI      -0.042000
      4 CAD          5.1610     0.0000    -2.1640 cc         1 6AI       0.380800
      5 CAE          1.5580    -0.0000    -1.8310 ca         1 6AI      -0.201000
      6 NAF          4.8250     0.0010    -3.4230 nd         1 6AI      -0.505100
      7 NAG          3.4320     0.0000    -3.5470 na         1 6AI      -0.057100
      8 CAH          1.3160     0.0000    -0.4690 ca         1 6AI       0.218600
      9 CAI          3.9350     0.0000    -1.3740 ca         1 6AI      -0.272900
     10 CAJ          2.8710    -0.0010    -2.2960 ca         1 6AI      -0.003200
     11 HNAA        -0.6040    -0.7710    -0.2040 hn         1 6AI       0.430300
     12 HNAB        -0.3430     0.7780     0.5270 hn         1 6AI       0.430300
     13 HAC          4.4820    -0.0000     0.7130 ha         1 6AI       0.131000
     14 HAD          6.1720     0.0000    -1.7740 h4         1 6AI       0.060800
     15 HAE          0.7370     0.1160    -2.5270 ha         1 6AI       0.135000
     16 HNAG         2.9270     0.0000    -4.4100 hn         1 6AI       0.329700
     17 HAB          2.1710    -0.0010     1.5030 ha         1 6AI       0.136000
@<TRIPOS>BOND
     1     1     8 1   
     2     2     3 ar  
     3     2     8 ar  
     4     3     9 ar  
     5     4     6 2   
     6     4     9 1   
     7     5     8 ar  
     8     5    10 ar  
     9     6     7 1   
    10     7    10 1   
    11     9    10 ar  
    12     1    11 1   
    13     1    12 1   
    14     2    17 1   
    15     3    13 1   
    16     4    14 1   
    17     5    15 1   
    18     7    16 1   
@<TRIPOS>SUBSTRUCTURE
     1 6AI         1 TEMP              0 ****  ****    0 ROOT
