@<TRIPOS>MOLECULE
6AI
   17    18     1     0     0
SMALL
bcc


@<TRIPOS>ATOM
      1 NAA          0.0000     0.0000     0.0000 nv         1 6AI      -0.532200
      2 CAB          2.3760     0.0000     0.4390 ca         1 6AI      -0.172000
      3 CAC          3.6660     0.0000     0.0000 ca         1 6AI       0.002000
      4 CAD          5.1610     0.0000    -2.1640 cc         1 6AI       0.441800
      5 CAE          1.5580    -0.0000    -1.8310 ca         1 6AI      -0.164000
      6 NAF          4.8250     0.0010    -3.4230 nd         1 6AI      -0.642100
      7 NAG          3.4320     0.0000    -3.5470 na         1 6AI       0.406900
      8 CAH          1.3160     0.0000    -0.4690 ca         1 6AI       0.080600
      9 CAI          3.9350     0.0000    -1.3740 ca         1 6AI      -0.284900
     10 CAJ          2.8710    -0.0010    -2.2960 ca         1 6AI      -0.164200
     11 HNAA        -0.6040    -0.7710    -0.2040 hn         1 6AI       0.272300
     12 HNAB        -0.3430     0.7780     0.5270 hn         1 6AI       0.272300
     13 HAC          4.4820    -0.0000     0.7130 ha         1 6AI       0.099000
     14 HAD          6.1720     0.0000    -1.7740 h4         1 6AI       0.012800
     15 HAE          0.7370     0.1160    -2.5270 ha         1 6AI       0.111000
     16 HNAG         2.9270     0.0000    -4.4100 hn         1 6AI       0.151700
     17 HAB          2.1710    -0.0010     1.5030 ha         1 6AI       0.111000
@<TRIPOS>BOND
     1     1     8 1   
     2     1    11 1   
     3     1    12 1   
     4     2     3 ar  
     5     2     8 ar  
     6     2    17 1   
     7     3     9 ar  
     8     3    13 1   
     9     4     6 2   
    10     4     9 1   
    11     4    14 1   
    12     5     8 ar  
    13     5    10 ar  
    14     5    15 1   
    15     6     7 1   
    16     7    10 1   
    17     7    16 1   
    18     9    10 ar  
@<TRIPOS>SUBSTRUCTURE
     1 6AI         1 TEMP              0 ****  ****    0 ROOT
