@<TRIPOS>MOLECULE
molecule
   54    58     1     0     0
SMALL
bcc


@<TRIPOS>ATOM
      1 C1           0.0000     0.0000     0.0000 ca         1 6AJ      -0.094300
      2 C2           1.3790     0.0000     0.0000 ca         1 6AJ      -0.065000
      3 C3           2.0750     0.0000     1.1990 ca         1 6AJ       0.136900
      4 C4           1.3900    -0.0010     2.4040 ca         1 6AJ      -0.096000
      5 C5           0.0100    -0.0010     2.4160 ca         1 6AJ      -0.074000
      6 C6          -0.6960    -0.0010     1.2110 ca         1 6AJ      -0.030000
      7 C7           0.6780     2.8770    -1.8390 c          1 6AJ       0.833100
      8 C8          -0.6720     2.5150    -1.7400 cc         1 6AJ      -0.478200
      9 C9          -1.6480     3.5080    -1.8860 cd         1 6AJ       0.695300
     10 C11         -2.6800     1.6230    -1.5330 cc         1 6AJ       0.521400
     11 C15         -0.7540     0.0060    -1.3040 c3         1 6AJ      -0.242400
     12 C17         -4.9660     1.3970    -1.0590 c3         1 6AJ      -0.090200
     13 C18         -6.0370     0.3600    -0.7160 c3         1 6AJ       0.115500
     14 C19         -6.2090    -0.5980    -1.8980 c3         1 6AJ      -0.263400
     15 C20         -4.8630    -1.2590    -2.2090 c3         1 6AJ      -0.297400
     16 C21         -3.8260    -0.1750    -2.5090 c3         1 6AJ      -0.196200
     17 C30         -2.1280     0.0040     1.2180 cg         1 6AJ       0.407800
     18 C26          1.9030     6.3010    -2.4680 c          1 6AJ       0.648500
     19 C23          0.0060     5.1120    -2.2090 cc         1 6AJ       0.540500
     20 C25          2.2750     4.8530    -2.2260 c3         1 6AJ       0.055000
     21 N31         -3.2640     0.0100     1.2040 n1         1 6AJ      -0.555800
     22 N10         -2.8430     2.9090    -1.7500 nd         1 6AJ      -0.593000
     23 N13         -1.2680     4.7760    -2.1160 nd         1 6AJ      -0.742700
     24 N12         -1.3520     1.3260    -1.5170 na         1 6AJ      -0.100900
     25 N16         -3.6970     0.7150    -1.3480 nh         1 6AJ      -0.031300
     26 N24          0.9820     4.1700    -2.0720 n          1 6AJ      -0.437300
     27 N27          0.5600     6.3550    -2.4390 n          1 6AJ      -0.333300
     28 N22         -5.6250    -0.3970     0.4740 nz         1 6AJ      -0.924600
     29 F32          3.7870     0.0240     1.2800 f          1 6AJ      -0.169900
     30 H1           1.9200    -0.0360    -0.9380 ha         1 6AJ       0.185000
     31 H2           1.9380     0.0010     3.3390 ha         1 6AJ       0.179000
     32 H3          -0.5230    -0.0290     3.3590 ha         1 6AJ       0.163000
     33 H4          -0.0570    -0.1120    -2.1250 h1         1 6AJ       0.199200
     34 H5          -1.2830     0.9450    -1.4110 h1         1 6AJ       0.199200
     35 H6          -4.0050     0.9000    -1.1250 h1         1 6AJ       0.088700
     36 H7          -4.9310     2.1390    -0.2700 h1         1 6AJ       0.088700
     37 H8          -6.9760     0.8640    -0.5220 hx         1 6AJ       0.136700
     38 H9          -7.0470    -1.2550    -1.6980 hc         1 6AJ       0.160700
     39 H10         -5.3080    -1.1900    -2.0040 hc         1 6AJ       0.160700
     40 H11         -4.1830    -0.5060    -2.5890 hc         1 6AJ       0.152200
     41 H12         -5.0130    -2.0190    -2.9660 hc         1 6AJ       0.152200
     42 H13         -3.6310     0.3830    -1.6010 h1         1 6AJ       0.088200
     43 H14         -2.9100    -0.6500    -2.8400 h1         1 6AJ       0.088200
     44 H15          2.8880     4.7780    -1.3360 h1         1 6AJ       0.126200
     45 H16          2.8150     4.4670    -3.0830 h1         1 6AJ       0.126200
     46 H17         -0.5430     8.2920    -2.8420 h1         1 6AJ       0.084367
     47 H18         -1.5650     6.8620    -3.0390 h1         1 6AJ       0.084367
     48 H19         -1.1490     7.4350    -1.4180 h1         1 6AJ       0.084367
     49 H20         -4.7670    -0.8760     0.2840 hn         1 6AJ       0.446133
     50 H21         -6.3350    -1.0630     0.7080 hn         1 6AJ       0.446133
     51 O14          1.3880     2.0700    -1.6170 o          1 6AJ      -0.558500
     52 C29         -0.7920     7.3200    -2.4340 c3         1 6AJ       0.176300
     53 H223        -5.0510     0.1810     1.0550 hn         1 6AJ       0.446133
     54 O28          2.6330     7.6910    -2.7540 o          1 6AJ      -0.642500
@<TRIPOS>BOND
     1    28    13 1
     2    14    15 1
     3    14    13 1
     4    29     3 1
     5    15    16 1
     6     3     4 ar
     7     3     2 ar
     8    13    12 1
     9     4     5 ar
    10     2     1 ar
    11     5     6 ar
    12     1     6 ar
    13     1    11 1
    14    16    25 1
    15     6    17 1
    16    11    24 1
    17    25    12 1
    18    25    10 1
    19    17    21 3
    20    24    10 1
    21    24     8 1
    22    10    22 2
    23     8     7 1
    24     8     9 2
    25    51     7 2
    26    22     9 1
    27     7    26 1
    28     9    23 1
    29    26    19 1
    30    26    20 1
    31    23    19 2
    32    19    27 1
    33    20    18 1
    34    27    18 1
    35    27    52 1
    36    18    54 2
    37     2    30 1
    38     4    31 1
    39     5    32 1
    40    11    33 1
    41    11    34 1
    42    12    35 1
    43    12    36 1
    44    13    37 1
    45    14    38 1
    46    14    39 1
    47    15    40 1
    48    15    41 1
    49    16    42 1
    50    16    43 1
    51    20    44 1
    52    20    45 1
    53    52    46 1
    54    52    47 1
    55    52    48 1
    56    28    49 1
    57    28    50 1
    58    53    28 1
@<TRIPOS>SUBSTRUCTURE
     1 6AJ         1 TEMP              0 ****  ****    0 ROOT
