@<TRIPOS>MOLECULE
molecule
   88    94     1     0     0
SMALL
bcc


@<TRIPOS>ATOM
      1 C14          0.0000     0.0000     0.0000 c3         1 6AK       0.038300
      2 C11          2.2320     0.0000     1.1530 cc         1 6AK      -0.100300
      3 C10          6.2680     1.4500     3.0900 c3         1 6AK       0.134400
      4 C12          1.6070     0.0020     2.4940 c          1 6AK       0.730700
      5 C13          0.3050    -1.8630     1.6470 c3         1 6AK       0.107000
      6 C01          2.3060    -0.0060    -1.0820 ca         1 6AK      -0.014200
      7 C02          2.0920    -0.0120    -2.4670 ca         1 6AK      -0.002000
      8 C03          3.1800    -0.0230    -3.3290 ca         1 6AK       0.051400
      9 Cl           2.9200    -0.0330    -5.0450 cl         1 6AK      -0.116400
     10 C04          4.4760    -0.0250    -2.8290 ca         1 6AK      -0.164000
     11 C05          4.7030    -0.0170    -1.4840 ca         1 6AK      -0.072000
     12 C06          3.6260    -0.0090    -0.5870 ca         1 6AK      -0.111800
     13 C07          3.5410    -0.0030     0.8280 cd         1 6AK      -0.105400
     14 C08          4.6990     0.0020     1.7930 c3         1 6AK      -0.000200
     15 C09          5.0910     1.4460     2.1110 c3         1 6AK      -0.079400
     16 O01          6.6340     2.7990     3.3890 os         1 6AK      -0.320900
     17 O02          2.0120     0.7070     3.3990 o          1 6AK      -0.591500
     18 N01          0.5520    -0.8360     2.6470 n          1 6AK      -0.384000
     19 N02          1.4630     0.0000     0.0000 na         1 6AK      -0.038400
     20 C15         -0.5190    -1.3680     0.4580 c3         1 6AK      -0.124400
     21 N03         -1.2330    -0.6700    -3.7680 na         1 6AK       0.065400
     22 C16         -2.3490    -1.5160    -4.1990 c3         1 6AK       0.066600
     23 C17         -0.0460    -1.1040    -3.2980 cd         1 6AK      -0.050600
     24 C18          0.3690    -2.5430    -3.1250 c3         1 6AK      -0.028800
     25 C19          0.7110    -0.0070    -3.0090 cc         1 6AK      -0.272300
     26 C20         -0.0580     1.1330    -3.3190 cc         1 6AK       0.364600
     27 C21          0.3800     2.5660    -3.1580 c3         1 6AK      -0.111400
     28 N04         -1.2140     0.7310    -3.7760 nd         1 6AK      -0.516800
     29 C22          9.7790     3.3510     6.0030 ca         1 6AK      -0.020600
     30 Cl2         11.1050     3.5830     7.0970 cl         1 6AK      -0.126400
     31 C23          9.1310     4.4470     5.4580 ca         1 6AK      -0.034300
     32 C24          9.5760     5.8400     5.8210 c3         1 6AK      -0.048800
     33 C25          8.0790     4.2640     4.5830 ca         1 6AK      -0.191000
     34 C26          7.6700     2.9800     4.2490 ca         1 6AK       0.164100
     35 C27          8.3190     1.8840     4.7960 ca         1 6AK      -0.191000
     36 C28          9.3720     2.0700     5.6700 ca         1 6AK      -0.034300
     37 C29         10.0830     0.8790     6.2590 c3         1 6AK      -0.048800
     38 C30         -1.9760    -0.4760     5.9780 ca         1 6AK      -0.101000
     39 C31         -2.2460     0.2280     4.8060 ca         1 6AK      -0.084600
     40 C32         -3.4270     1.1050     4.7340 c          1 6AK       0.884200
     41 O03         -3.6660     1.7210     3.7130 o          1 6AK      -0.834800
     42 O04         -4.2440     1.2250     5.7990 o          1 6AK      -0.834800
     43 C33         -1.3990     0.1050     3.6940 ca         1 6AK      -0.104000
     44 C34         -0.2910    -0.7140     3.7540 ca         1 6AK       0.028600
     45 C35         -0.0150    -1.4250     4.9330 ca         1 6AK      -0.103800
     46 C36         -0.8610    -1.2990     6.0510 ca         1 6AK      -0.049200
     47 N05         -0.3440    -2.1030     7.0440 na         1 6AK      -0.078400
     48 C37         -0.9210    -2.2650     8.3810 c3         1 6AK       0.045600
     49 C38          0.7870    -2.7250     6.5960 cd         1 6AK      -0.122100
     50 C39          1.0420    -2.3540     5.3290 cc         1 6AK      -0.204200
     51 H1          -0.3590     0.7650     0.6780 h1         1 6AK       0.083200
     52 H2          -0.3590     0.2020    -1.0020 h1         1 6AK       0.083200
     53 H3           7.1110     0.9370     2.6440 h1         1 6AK       0.034700
     54 H4           5.9790     0.9430     4.0040 h1         1 6AK       0.034700
     55 H5          -0.2240    -2.6830     2.1170 h1         1 6AK       0.054200
     56 H6           1.2590    -2.2230     1.2790 h1         1 6AK       0.054200
     57 H7           5.3150    -0.0330    -3.5140 ha         1 6AK       0.135000
     58 H8           5.7190    -0.0190    -1.1070 ha         1 6AK       0.131000
     59 H9           4.4100    -0.5040     2.7060 hc         1 6AK       0.047700
     60 H10          5.5420    -0.5120     1.3470 hc         1 6AK       0.047700
     61 H11          5.3800     1.9510     1.1980 hc         1 6AK       0.069700
     62 H12          4.2480     1.9590     2.5580 hc         1 6AK       0.069700
     63 H13         -0.4330    -2.0760    -0.3570 hc         1 6AK       0.059200
     64 H14         -1.5570    -1.2770     0.7550 hc         1 6AK       0.059200
     65 H15         -3.1650    -0.8910    -4.5400 h1         1 6AK       0.052367
     66 H16         -2.6840    -2.1240    -3.3670 h1         1 6AK       0.052367
     67 H17         -2.0240    -2.1580    -5.0080 h1         1 6AK       0.052367
     68 H18          1.2460    -2.5920    -2.4900 hc         1 6AK       0.052700
     69 H19          0.6010    -2.9710    -4.0930 hc         1 6AK       0.052700
     70 H20         -0.4400    -3.1000    -2.6680 hc         1 6AK       0.052700
     71 H21         -0.2360     3.0490    -2.4080 hc         1 6AK       0.053700
     72 H22          0.2720     3.0850    -4.1020 hc         1 6AK       0.053700
     73 H23          1.4170     2.5940    -2.8470 hc         1 6AK       0.053700
     74 H24          9.4450     5.9950     6.8850 hc         1 6AK       0.047533
     75 H25         10.6210     5.9640     5.5640 hc         1 6AK       0.047533
     76 H26          8.9820     6.5630     5.2750 hc         1 6AK       0.047533
     77 H27          7.5720     5.1220     4.1570 ha         1 6AK       0.147500
     78 H28          8.0010     0.8810     4.5360 ha         1 6AK       0.147500
     79 H29         11.0430     0.7550     5.7730 hc         1 6AK       0.047533
     80 H30          9.4830    -0.0110     6.1070 hc         1 6AK       0.047533
     81 H31         10.2330     1.0360     7.3200 hc         1 6AK       0.047533
     82 H32         -2.6590    -0.4130     6.8170 ha         1 6AK       0.156000
     83 H34         -1.6160     0.6560     2.7870 ha         1 6AK       0.149000
     84 H35         -1.9180    -2.6820     8.2950 h1         1 6AK       0.042033
     85 H36         -0.9740    -1.3010     8.8710 h1         1 6AK       0.042033
     86 H37         -0.3000    -2.9340     8.9640 h1         1 6AK       0.042033
     87 H38          1.3870    -3.4170     7.1750 h4         1 6AK       0.145000
     88 H39          1.8710    -2.6860     4.7150 ha         1 6AK       0.138000
@<TRIPOS>BOND
     1    30    29 1   
     2    32    31 1   
     3    31    29 ar  
     4    31    33 ar  
     5    29    36 ar  
     6    37    36 1   
     7    33    34 ar  
     8    36    35 ar  
     9    34    35 ar  
    10    34    16 1   
    11    16     3 1   
    12     3    15 1   
    13    15    14 1   
    14    10    11 ar  
    15    10     8 ar  
    16    11    12 ar  
    17    14    13 1   
    18     9     8 1   
    19     8     7 ar  
    20    12    13 1   
    21    12     6 ar  
    22    13     2 2   
    23     6     7 ar  
    24     6    19 1   
    25     7    25 1   
    26     2    19 1   
    27     2     4 1   
    28    17     4 2   
    29    19     1 1   
    30    27    26 1   
    31    25    26 1   
    32    25    23 2   
    33     4    18 1   
    34    26    28 2   
    35    23    24 1   
    36    23    21 1   
    37     1    20 1   
    38    18     5 1   
    39    18    44 1   
    40    28    21 1   
    41    21    22 1   
    42     5    20 1   
    43    44    43 ar  
    44    44    45 ar  
    45    43    39 ar  
    46    50    45 1   
    47    50    49 2   
    48    45    46 ar  
    49    39    40 1   
    50    39    38 ar  
    51    41    40 1   
    52    49    47 1   
    53    40    42 1   
    54    46    38 ar  
    55    46    47 1   
    56    47    48 1   
    57     1    51 1   
    58     1    52 1   
    59     3    53 1   
    60     3    54 1   
    61     5    55 1   
    62     5    56 1   
    63    10    57 1   
    64    11    58 1   
    65    14    59 1   
    66    14    60 1   
    67    15    61 1   
    68    15    62 1   
    69    20    63 1   
    70    20    64 1   
    71    22    65 1   
    72    22    66 1   
    73    22    67 1   
    74    24    68 1   
    75    24    69 1   
    76    24    70 1   
    77    27    71 1   
    78    27    72 1   
    79    27    73 1   
    80    32    74 1   
    81    32    75 1   
    82    32    76 1   
    83    33    77 1   
    84    35    78 1   
    85    37    79 1   
    86    37    80 1   
    87    37    81 1   
    88    38    82 1   
    89    43    83 1   
    90    48    84 1   
    91    48    85 1   
    92    48    86 1   
    93    49    87 1   
    94    50    88 1   
@<TRIPOS>SUBSTRUCTURE
     1 6AK         1 TEMP              0 ****  ****    0 ROOT
