@<TRIPOS>MOLECULE
6AK
   88    94     1     0     0
SMALL
bcc


@<TRIPOS>ATOM
      1 C14          0.0000     0.0000     0.0000 c3         1 6AK      -0.079700
      2 C11          2.2320     0.0000     1.1530 cc         1 6AK      -0.291300
      3 C10          6.2680     1.4500     3.0900 c3         1 6AK       0.199400
      4 C12          1.6070     0.0020     2.4940 c          1 6AK       0.657700
      5 C13          0.3050    -1.8630     1.6470 c3         1 6AK       0.028000
      6 C01          2.3060    -0.0060    -1.0820 ca         1 6AK      -0.192200
      7 C02          2.0920    -0.0120    -2.4670 ca         1 6AK       0.027000
      8 C03          3.1800    -0.0230    -3.3290 ca         1 6AK      -0.013600
      9 Cl           2.9200    -0.0330    -5.0450 cl         1 6AK      -0.045400
     10 C04          4.4760    -0.0250    -2.8290 ca         1 6AK      -0.146000
     11 C05          4.7030    -0.0170    -1.4840 ca         1 6AK      -0.035000
     12 C06          3.6260    -0.0090    -0.5870 ca         1 6AK      -0.112800
     13 C07          3.5410    -0.0030     0.8280 cd         1 6AK      -0.094400
     14 C08          4.6990     0.0020     1.7930 c3         1 6AK       0.072800
     15 C09          5.0910     1.4460     2.1110 c3         1 6AK      -0.041400
     16 O01          6.6340     2.7990     3.3890 os         1 6AK      -0.296900
     17 O02          2.0120     0.7070     3.3990 o          1 6AK      -0.638500
     18 N01          0.5520    -0.8360     2.6470 n          1 6AK      -0.000000
     19 N02          1.4630     0.0000     0.0000 na         1 6AK       0.444600
     20 C15         -0.5190    -1.3680     0.4580 c3         1 6AK      -0.064400
     21 N03         -1.2330    -0.6700    -3.7680 na         1 6AK       0.493400
     22 C16         -2.3490    -1.5160    -4.1990 c3         1 6AK       0.022600
     23 C17         -0.0460    -1.1040    -3.2980 cc         1 6AK      -0.221600
     24 C18          0.3690    -2.5430    -3.1250 c3         1 6AK       0.089200
     25 C19          0.7110    -0.0070    -3.0090 cd         1 6AK      -0.279300
     26 C20         -0.0580     1.1330    -3.3190 cd         1 6AK       0.388600
     27 C21          0.3800     2.5660    -3.1580 c3         1 6AK      -0.011400
     28 N04         -1.2140     0.7310    -3.7760 nc         1 6AK      -0.652800
     29 C22          9.7790     3.3510     6.0030 ca         1 6AK      -0.082600
     30 Cl2         11.1050     3.5830     7.0970 cl         1 6AK      -0.043400
     31 C23          9.1310     4.4470     5.4580 ca         1 6AK      -0.038300
     32 C24          9.5760     5.8400     5.8210 c3         1 6AK       0.056200
     33 C25          8.0790     4.2640     4.5830 ca         1 6AK      -0.179500
     34 C26          7.6700     2.9800     4.2490 ca         1 6AK       0.176100
     35 C27          8.3190     1.8840     4.7960 ca         1 6AK      -0.179500
     36 C28          9.3720     2.0700     5.6700 ca         1 6AK      -0.038300
     37 C29         10.0830     0.8790     6.2590 c3         1 6AK       0.056200
     38 C30         -1.9760    -0.4760     5.9780 ca         1 6AK      -0.054000
     39 C31         -2.2460     0.2280     4.8060 ca         1 6AK      -0.092600
     40 C32         -3.4270     1.1050     4.7340 c          1 6AK       0.974200
     41 O03         -3.6660     1.7210     3.7130 o          1 6AK      -0.883800
     42 O04         -4.2440     1.2250     5.7990 o          1 6AK      -0.883800
     43 C33         -1.3990     0.1050     3.6940 ca         1 6AK      -0.064000
     44 C34         -0.2910    -0.7140     3.7540 ca         1 6AK      -0.106400
     45 C35         -0.0150    -1.4250     4.9330 ca         1 6AK      -0.091800
     46 C36         -0.8610    -1.2990     6.0510 ca         1 6AK      -0.223200
     47 N05         -0.3440    -2.1030     7.0440 na         1 6AK       0.385600
     48 C37         -0.9210    -2.2650     8.3810 c3         1 6AK      -0.003400
     49 C38          0.7870    -2.7250     6.5960 cc         1 6AK      -0.273100
     50 C39          1.0420    -2.3540     5.3290 cd         1 6AK      -0.180200
     51 H1          -0.3590     0.7650     0.6780 h1         1 6AK       0.059700
     52 H2          -0.3590     0.2020    -1.0020 h1         1 6AK       0.059700
     53 H3           7.1110     0.9370     2.6440 h1         1 6AK       0.000700
     54 H4           5.9790     0.9430     4.0040 h1         1 6AK       0.000700
     55 H5          -0.2240    -2.6830     2.1170 h1         1 6AK       0.028700
     56 H6           1.2590    -2.2230     1.2790 h1         1 6AK       0.028700
     57 H7           5.3150    -0.0330    -3.5140 ha         1 6AK       0.109000
     58 H8           5.7190    -0.0190    -1.1070 ha         1 6AK       0.100000
     59 H9           4.4100    -0.5040     2.7060 hc         1 6AK       0.015700
     60 H10          5.5420    -0.5120     1.3470 hc         1 6AK       0.015700
     61 H11          5.3800     1.9510     1.1980 hc         1 6AK       0.039200
     62 H12          4.2480     1.9590     2.5580 hc         1 6AK       0.039200
     63 H13         -0.4330    -2.0760    -0.3570 hc         1 6AK       0.031200
     64 H14         -1.5570    -1.2770     0.7550 hc         1 6AK       0.031200
     65 H15         -3.1650    -0.8910    -4.5400 h1         1 6AK       0.020700
     66 H16         -2.6840    -2.1240    -3.3670 h1         1 6AK       0.020700
     67 H17         -2.0240    -2.1580    -5.0080 h1         1 6AK       0.020700
     68 H18          1.2460    -2.5920    -2.4900 hc         1 6AK       0.014700
     69 H19          0.6010    -2.9710    -4.0930 hc         1 6AK       0.014700
     70 H20         -0.4400    -3.1000    -2.6680 hc         1 6AK       0.014700
     71 H21         -0.2360     3.0490    -2.4080 hc         1 6AK       0.015367
     72 H22          0.2720     3.0850    -4.1020 hc         1 6AK       0.015367
     73 H23          1.4170     2.5940    -2.8470 hc         1 6AK       0.015367
     74 H24          9.4450     5.9950     6.8850 hc         1 6AK       0.011700
     75 H25         10.6210     5.9640     5.5640 hc         1 6AK       0.011700
     76 H26          8.9820     6.5630     5.2750 hc         1 6AK       0.011700
     77 H27          7.5720     5.1220     4.1570 ha         1 6AK       0.127000
     78 H28          8.0010     0.8810     4.5360 ha         1 6AK       0.127000
     79 H29         11.0430     0.7550     5.7730 hc         1 6AK       0.011700
     80 H30          9.4830    -0.0110     6.1070 hc         1 6AK       0.011700
     81 H31         10.2330     1.0360     7.3200 hc         1 6AK       0.011700
     82 H32         -2.6590    -0.4130     6.8170 ha         1 6AK       0.130000
     83 H34         -1.6160     0.6560     2.7870 ha         1 6AK       0.122000
     84 H35         -1.9180    -2.6820     8.2950 h1         1 6AK       0.012700
     85 H36         -0.9740    -1.3010     8.8710 h1         1 6AK       0.012700
     86 H37         -0.3000    -2.9340     8.9640 h1         1 6AK       0.012700
     87 H38          1.3870    -3.4170     7.1750 h4         1 6AK       0.125000
     88 H39          1.8710    -2.6860     4.7150 ha         1 6AK       0.116000
@<TRIPOS>BOND
     1     1    19 1   
     2     1    20 1   
     3     1    51 1   
     4     1    52 1   
     5     2     4 1   
     6     2    13 2   
     7     2    19 1   
     8     3    15 1   
     9     3    16 1   
    10     3    53 1   
    11     3    54 1   
    12     4    17 2   
    13     4    18 1   
    14     5    18 1   
    15     5    20 1   
    16     5    55 1   
    17     5    56 1   
    18     6     7 ar  
    19     6    12 ar  
    20     6    19 1   
    21     7     8 ar  
    22     7    25 1   
    23     8     9 1   
    24     8    10 ar  
    25    10    11 ar  
    26    10    57 1   
    27    11    12 ar  
    28    11    58 1   
    29    12    13 1   
    30    13    14 1   
    31    14    15 1   
    32    14    59 1   
    33    14    60 1   
    34    15    61 1   
    35    15    62 1   
    36    16    34 1   
    37    18    44 1   
    38    20    63 1   
    39    20    64 1   
    40    21    22 1   
    41    21    23 1   
    42    21    28 1   
    43    22    65 1   
    44    22    66 1   
    45    22    67 1   
    46    23    24 1   
    47    23    25 2   
    48    24    68 1   
    49    24    69 1   
    50    24    70 1   
    51    25    26 1   
    52    26    27 1   
    53    26    28 2   
    54    27    71 1   
    55    27    72 1   
    56    27    73 1   
    57    29    30 1   
    58    29    31 ar  
    59    29    36 ar  
    60    31    32 1   
    61    31    33 ar  
    62    32    74 1   
    63    32    75 1   
    64    32    76 1   
    65    33    34 ar  
    66    33    77 1   
    67    34    35 ar  
    68    35    36 ar  
    69    35    78 1   
    70    36    37 1   
    71    37    79 1   
    72    37    80 1   
    73    37    81 1   
    74    38    39 ar  
    75    38    46 ar  
    76    38    82 1   
    77    39    40 1   
    78    39    43 ar  
    79    40    41 1   
    80    40    42 1   
    81    43    44 ar  
    82    43    83 1   
    83    44    45 ar  
    84    45    46 ar  
    85    45    50 1   
    86    46    47 1   
    87    47    48 1   
    88    47    49 1   
    89    48    84 1   
    90    48    85 1   
    91    48    86 1   
    92    49    50 2   
    93    49    87 1   
    94    50    88 1   
@<TRIPOS>SUBSTRUCTURE
     1 6AK         1 TEMP              0 ****  ****    0 ROOT
