@<TRIPOS>MOLECULE
6AL
   74    78     1     0     0
SMALL
bcc


@<TRIPOS>ATOM
      1 C13          0.0000     0.0000     0.0000 ca         1 6AL      -0.123000
      2 C15          0.0000     0.0020     2.4050 ca         1 6AL      -0.092600
      3 C21          6.5690     1.8520     2.4190 cc         1 6AL      -0.097400
      4 C22          6.1430     2.7160     3.5780 c3         1 6AL       0.043800
      5 C24          5.5220     5.0320     4.2760 c3         1 6AL       0.195400
      6 C26          4.9590     7.2910     4.7590 ca         1 6AL       0.174100
      7 C28          4.3730     7.8330     7.0190 ca         1 6AL      -0.037800
      8 C02         10.2670     0.5900     0.9600 ca         1 6AL      -0.019600
      9 C03         10.2670     1.7820     1.6720 ca         1 6AL      -0.164000
     10 C04          9.1090     2.2840     2.1930 ca         1 6AL      -0.032000
     11 C05          7.9010     1.5970     2.0130 ca         1 6AL      -0.077800
     12 C06          7.8860     0.3870     1.2940 ca         1 6AL      -0.218200
     13 N07          6.5880    -0.0640     1.2720 na         1 6AL       0.376600
     14 C08          5.7950     0.8320     1.9630 cd         1 6AL      -0.312300
     15 C09          4.1610     0.6430     2.1640 c          1 6AL       0.600300
     16 N10          3.4810    -0.0010     1.1940 ns         1 6AL      -0.018100
     17 C11          2.0830     0.0000     1.2000 ca         1 6AL      -0.142400
     18 C12          1.3830     0.0000     0.0000 ca         1 6AL      -0.165000
     19 C14         -0.6940     0.0010     1.1920 ca         1 6AL      -0.073000
     20 C16         -0.7410     0.0020     3.6830 c          1 6AL       0.971200
     21 O17         -2.0870     0.0020     3.6810 o          1 6AL      -0.877300
     22 O18         -0.1350     0.0020     4.7360 o          1 6AL      -0.877300
     23 C19          1.3950     0.0010     2.4040 ca         1 6AL      -0.060000
     24 O20          3.5600     1.3030     2.9910 o          1 6AL      -0.568100
     25 C23          5.9540     4.1560     3.0990 c3         1 6AL      -0.030400
     26 O25          5.3450     6.3780     3.8300 os         1 6AL      -0.305900
     27 C27          4.7590     6.9010     6.0750 ca         1 6AL      -0.179000
     28 C29          4.1560     7.4100     8.4500 c3         1 6AL       0.056200
     29 C30          4.7690     8.6170     4.3930 ca         1 6AL      -0.179000
     30 C31          4.3820     9.5440     5.3410 ca         1 6AL      -0.037800
     31 C32          4.1750    10.9840     4.9440 c3         1 6AL       0.056200
     32 C33          4.1840     9.1540     6.6530 ca         1 6AL      -0.080600
     33 Cl2          3.6970    10.3220     7.8410 cl         1 6AL      -0.044400
     34 C35          9.0840    -0.1140     0.7660 ca         1 6AL       0.023000
     35 C36          9.0900    -1.3890     0.0050 cc         1 6AL      -0.280300
     36 C37          8.9150    -1.5230    -1.3420 cd         1 6AL      -0.220600
     37 C38          8.6810    -0.4060    -2.3250 c3         1 6AL       0.091200
     38 N39          8.9910    -2.8380    -1.6320 na         1 6AL       0.491400
     39 C40          8.8580    -3.4320    -2.9650 c3         1 6AL       0.023600
     40 N41          9.2170    -3.5370    -0.4400 nd         1 6AL      -0.658800
     41 C42          9.2830    -2.6770     0.5400 cc         1 6AL       0.388600
     42 C43          9.5150    -3.0060     1.9920 c3         1 6AL      -0.007400
     43 H1          -0.5400     0.0150    -0.9390 ha         1 6AL       0.086000
     44 H2           6.9050     2.6880     4.3480 hc         1 6AL       0.037700
     45 H3           5.2090     2.3440     3.9820 hc         1 6AL       0.037700
     46 H4           4.5880     4.6600     4.6790 h1         1 6AL       0.007700
     47 H5           6.2840     5.0040     5.0460 h1         1 6AL       0.007700
     48 H6          11.2180     2.2900     1.7800 ha         1 6AL       0.110000
     49 H7           9.4410     3.1230     2.7930 ha         1 6AL       0.109000
     50 H8           6.2700    -0.9050     0.8330 hn         1 6AL       0.120700
     51 H9           3.9510    -0.2780     0.3550 hn         1 6AL       0.143500
     52 H10          1.9220     0.0090    -0.9390 ha         1 6AL       0.082000
     53 H11         -1.7770    -0.0080     1.1880 ha         1 6AL       0.131000
     54 H13          1.7400    -0.5600     3.2640 ha         1 6AL       0.139000
     55 H14          6.8890     4.5280     2.6970 hc         1 6AL       0.024200
     56 H15          5.1930     4.1840     2.3290 hc         1 6AL       0.024200
     57 H16          4.8560     5.8580     6.3520 ha         1 6AL       0.127500
     58 H17          4.5040     6.3920     8.5820 hc         1 6AL       0.012033
     59 H18          4.7080     8.0690     9.1090 hc         1 6AL       0.012033
     60 H19          3.1000     7.4640     8.6860 hc         1 6AL       0.012033
     61 H20          4.9710     8.9320     3.3770 ha         1 6AL       0.127500
     62 H21          4.3580    11.0950     3.8820 hc         1 6AL       0.012033
     63 H22          3.1570    11.2770     5.1680 hc         1 6AL       0.012033
     64 H23          4.8620    11.6130     5.4970 hc         1 6AL       0.012033
     65 H24          7.6740    -0.4760    -2.7170 hc         1 6AL       0.014700
     66 H25          9.3920    -0.4870    -3.1390 hc         1 6AL       0.014700
     67 H26          8.8100     0.5470    -1.8260 hc         1 6AL       0.014700
     68 H27          7.9130    -3.1340    -3.4010 h1         1 6AL       0.020033
     69 H28          8.8950    -4.5120    -2.8840 h1         1 6AL       0.020033
     70 H29          9.6700    -3.0900    -3.5950 h1         1 6AL       0.020033
     71 H30          8.5620    -3.1410     2.4880 hc         1 6AL       0.013700
     72 H31         10.0950    -3.9180     2.0670 hc         1 6AL       0.013700
     73 H32         10.0560    -2.1950     2.4640 hc         1 6AL       0.013700
     74 Cl          11.7530    -0.0260     0.3090 cl         1 6AL      -0.045400
@<TRIPOS>BOND
     1     1    18 ar  
     2     1    19 ar  
     3     1    43 1   
     4     2    19 ar  
     5     2    20 1   
     6     2    23 ar  
     7     3     4 1   
     8     3    11 1   
     9     3    14 2   
    10     4    25 1   
    11     4    44 1   
    12     4    45 1   
    13     5    25 1   
    14     5    26 1   
    15     5    46 1   
    16     5    47 1   
    17     6    26 1   
    18     6    27 ar  
    19     6    29 ar  
    20     7    27 ar  
    21     7    28 1   
    22     7    32 ar  
    23     8     9 ar  
    24     8    34 ar  
    25     8    74 1   
    26     9    10 ar  
    27     9    48 1   
    28    10    11 ar  
    29    10    49 1   
    30    11    12 ar  
    31    12    13 1   
    32    12    34 ar  
    33    13    14 1   
    34    13    50 1   
    35    14    15 1   
    36    15    16 1   
    37    15    24 2   
    38    16    17 1   
    39    16    51 1   
    40    17    18 ar  
    41    17    23 ar  
    42    18    52 1   
    43    19    53 1   
    44    20    21 1   
    45    20    22 1   
    46    23    54 1   
    47    25    55 1   
    48    25    56 1   
    49    27    57 1   
    50    28    58 1   
    51    28    59 1   
    52    28    60 1   
    53    29    30 ar  
    54    29    61 1   
    55    30    31 1   
    56    30    32 ar  
    57    31    62 1   
    58    31    63 1   
    59    31    64 1   
    60    32    33 1   
    61    34    35 1   
    62    35    36 2   
    63    35    41 1   
    64    36    37 1   
    65    36    38 1   
    66    37    65 1   
    67    37    66 1   
    68    37    67 1   
    69    38    39 1   
    70    38    40 1   
    71    39    68 1   
    72    39    69 1   
    73    39    70 1   
    74    40    41 2   
    75    41    42 1   
    76    42    71 1   
    77    42    72 1   
    78    42    73 1   
@<TRIPOS>SUBSTRUCTURE
     1 6AL         1 TEMP              0 ****  ****    0 ROOT
