@<TRIPOS>MOLECULE
molecule
   74    78     1     0     0
SMALL
bcc


@<TRIPOS>ATOM
      1 C13          0.0000     0.0000     0.0000 ca         1 6AL      -0.144000
      2 C15          0.0000     0.0020     2.4050 ca         1 6AL      -0.090600
      3 C21          6.5690     1.8520     2.4190 cc         1 6AL      -0.105400
      4 C22          6.1430     2.7160     3.5780 c3         1 6AL      -0.014200
      5 C24          5.5220     5.0320     4.2760 c3         1 6AL       0.131400
      6 C26          4.9590     7.2910     4.7590 ca         1 6AL       0.163100
      7 C28          4.3730     7.8330     7.0190 ca         1 6AL      -0.033300
      8 C02         10.2670     0.5900     0.9600 ca         1 6AL       0.044400
      9 C03         10.2670     1.7820     1.6720 ca         1 6AL      -0.176000
     10 C04          9.1090     2.2840     2.1930 ca         1 6AL      -0.070000
     11 C05          7.9010     1.5970     2.0130 ca         1 6AL      -0.081800
     12 C06          7.8860     0.3870     1.2940 ca         1 6AL      -0.024200
     13 N07          6.5880    -0.0640     1.2720 na         1 6AL      -0.165400
     14 C08          5.7950     0.8320     1.9630 cd         1 6AL      -0.105300
     15 C09          4.1610     0.6430     2.1640 c          1 6AL       0.680300
     16 N10          3.4810    -0.0010     1.1940 ns         1 6AL      -0.458100
     17 C11          2.0830     0.0000     1.2000 ca         1 6AL       0.010600
     18 C12          1.3830     0.0000     0.0000 ca         1 6AL      -0.190000
     19 C14         -0.6940     0.0010     1.1920 ca         1 6AL      -0.106000
     20 C16         -0.7410     0.0020     3.6830 c          1 6AL       0.881200
     21 O17         -2.0870     0.0020     3.6810 o          1 6AL      -0.829300
     22 O18         -0.1350     0.0020     4.7360 o          1 6AL      -0.829300
     23 C19          1.3950     0.0010     2.4040 ca         1 6AL      -0.096000
     24 O20          3.5600     1.3030     2.9910 o          1 6AL      -0.525100
     25 C23          5.9540     4.1560     3.0990 c3         1 6AL      -0.074400
     26 O25          5.3450     6.3780     3.8300 os         1 6AL      -0.328900
     27 C27          4.7590     6.9010     6.0750 ca         1 6AL      -0.191000
     28 C29          4.1560     7.4100     8.4500 c3         1 6AL      -0.048300
     29 C30          4.7690     8.6170     4.3930 ca         1 6AL      -0.191000
     30 C31          4.3820     9.5440     5.3410 ca         1 6AL      -0.033300
     31 C32          4.1750    10.9840     4.9440 c3         1 6AL      -0.048300
     32 C33          4.1840     9.1540     6.6530 ca         1 6AL      -0.019600
     33 Cl2          3.6970    10.3220     7.8410 cl         1 6AL      -0.126400
     34 C35          9.0840    -0.1140     0.7660 ca         1 6AL      -0.007000
     35 C36          9.0900    -1.3890     0.0050 cd         1 6AL      -0.274300
     36 C37          8.9150    -1.5230    -1.3420 cc         1 6AL      -0.048600
     37 C38          8.6810    -0.4060    -2.3250 c3         1 6AL      -0.029800
     38 N39          8.9910    -2.8380    -1.6320 na         1 6AL       0.064400
     39 C40          8.8580    -3.4320    -2.9650 c3         1 6AL       0.066600
     40 N41          9.2170    -3.5370    -0.4400 nc         1 6AL      -0.521800
     41 C42          9.2830    -2.6770     0.5400 cd         1 6AL       0.365600
     42 C43          9.5150    -3.0060     1.9920 c3         1 6AL      -0.110400
     43 H1          -0.5400     0.0150    -0.9390 ha         1 6AL       0.110000
     44 H2           6.9050     2.6880     4.3480 hc         1 6AL       0.066700
     45 H3           5.2090     2.3440     3.9820 hc         1 6AL       0.066700
     46 H4           4.5880     4.6600     4.6790 h1         1 6AL       0.041200
     47 H5           6.2840     5.0040     5.0460 h1         1 6AL       0.041200
     48 H6          11.2180     2.2900     1.7800 ha         1 6AL       0.136000
     49 H7           9.4410     3.1230     2.7930 ha         1 6AL       0.141000
     50 H8           6.2700    -0.9050     0.8330 hn         1 6AL       0.306700
     51 H9           3.9510    -0.2780     0.3550 hn         1 6AL       0.304500
     52 H10          1.9220     0.0090    -0.9390 ha         1 6AL       0.100000
     53 H11         -1.7770    -0.0080     1.1880 ha         1 6AL       0.157000
     54 H13          1.7400    -0.5600     3.2640 ha         1 6AL       0.164000
     55 H14          6.8890     4.5280     2.6970 hc         1 6AL       0.056200
     56 H15          5.1930     4.1840     2.3290 hc         1 6AL       0.056200
     57 H16          4.8560     5.8580     6.3520 ha         1 6AL       0.147500
     58 H17          4.5040     6.3920     8.5820 hc         1 6AL       0.047867
     59 H18          4.7080     8.0690     9.1090 hc         1 6AL       0.047867
     60 H19          3.1000     7.4640     8.6860 hc         1 6AL       0.047867
     61 H20          4.9710     8.9320     3.3770 ha         1 6AL       0.147500
     62 H21          4.3580    11.0950     3.8820 hc         1 6AL       0.047867
     63 H22          3.1570    11.2770     5.1680 hc         1 6AL       0.047867
     64 H23          4.8620    11.6130     5.4970 hc         1 6AL       0.047867
     65 H24          7.6740    -0.4760    -2.7170 hc         1 6AL       0.053367
     66 H25          9.3920    -0.4870    -3.1390 hc         1 6AL       0.053367
     67 H26          8.8100     0.5470    -1.8260 hc         1 6AL       0.053367
     68 H27          7.9130    -3.1340    -3.4010 h1         1 6AL       0.052033
     69 H28          8.8950    -4.5120    -2.8840 h1         1 6AL       0.052033
     70 H29          9.6700    -3.0900    -3.5950 h1         1 6AL       0.052033
     71 H30          8.5620    -3.1410     2.4880 hc         1 6AL       0.052700
     72 H31         10.0950    -3.9180     2.0670 hc         1 6AL       0.052700
     73 H32         10.0560    -2.1950     2.4640 hc         1 6AL       0.052700
     74 Cl          11.7530    -0.0260     0.3090 cl         1 6AL      -0.117400
@<TRIPOS>BOND
     1     1    19 ar  
     2     1    18 ar  
     3    19     2 ar  
     4    22    20 1   
     5    18    17 ar  
     6     2    20 1   
     7     2    23 ar  
     8    20    21 1   
     9    17    23 ar  
    10    17    16 1   
    11    16    15 1   
    12    15    24 2   
    13    15    14 1   
    14    42    41 1   
    15    40    41 2   
    16    40    38 1   
    17    41    35 1   
    18    14    13 1   
    19    14     3 2   
    20    39    38 1   
    21    13    12 1   
    22    38    36 1   
    23    35    36 2   
    24    35    34 1   
    25     3     4 1   
    26     3    11 1   
    27    36    37 1   
    28     4    25 1   
    29    12    34 ar  
    30    12    11 ar  
    31    34     8 ar  
    32    11    10 ar  
    33    25     5 1   
    34     8     9 ar  
    35     8    74 1   
    36    10     9 ar  
    37     5    26 1   
    38    26     6 1   
    39     6    29 ar  
    40     6    27 ar  
    41    29    30 ar  
    42    27     7 ar  
    43    30    31 1   
    44    30    32 ar  
    45     7    32 ar  
    46     7    28 1   
    47    32    33 1   
    48     1    43 1   
    49     4    44 1   
    50     4    45 1   
    51     5    46 1   
    52     5    47 1   
    53     9    48 1   
    54    10    49 1   
    55    13    50 1   
    56    16    51 1   
    57    18    52 1   
    58    19    53 1   
    59    23    54 1   
    60    25    55 1   
    61    25    56 1   
    62    27    57 1   
    63    28    58 1   
    64    28    59 1   
    65    28    60 1   
    66    29    61 1   
    67    31    62 1   
    68    31    63 1   
    69    31    64 1   
    70    37    65 1   
    71    37    66 1   
    72    37    67 1   
    73    39    68 1   
    74    39    69 1   
    75    39    70 1   
    76    42    71 1   
    77    42    72 1   
    78    42    73 1   
@<TRIPOS>SUBSTRUCTURE
     1 6AL         1 TEMP              0 ****  ****    0 ROOT
