@<TRIPOS>MOLECULE
6AM
   14    14     1     0     0
SMALL
bcc


@<TRIPOS>ATOM
      1 OAC          0.0000     0.0000     0.0000 oh         1 6AM      -0.599300
      2 CAI          1.3520     0.0000     0.0000 ca         1 6AM       0.900300
      3 NAF          2.0160     0.0000     1.1500 nb         1 6AM      -0.765500
      4 NAE          2.0150    -0.0050    -1.1500 nb         1 6AM      -0.765500
      5 CAG          3.3460    -0.0050    -1.1510 ca         1 6AM       0.780900
      6 NAA          4.0350    -0.0100    -2.3480 nv         1 6AM      -0.555500
      7 NAD          4.0100    -0.0000    -0.0010 nb         1 6AM      -0.767000
      8 CAH          3.3460    -0.0010     1.1500 ca         1 6AM       0.780900
      9 NAB          4.0360     0.0050     2.3450 nv         1 6AM      -0.555500
     10 H1           4.3290     0.8540    -2.7590 hn         1 6AM       0.280800
     11 H2           4.2410    -0.8760    -2.8040 hn         1 6AM       0.280800
     12 H4           3.5350     0.0070     3.2120 hn         1 6AM       0.280800
     13 H5           5.0370     0.0060     2.3450 hn         1 6AM       0.280800
     14 H3          -0.3140     0.8890    -0.0020 ho         1 6AM       0.421000
@<TRIPOS>BOND
     1     1     2 1   
     2     1    14 1   
     3     2     3 ar  
     4     2     4 ar  
     5     3     8 ar  
     6     4     5 ar  
     7     5     6 1   
     8     5     7 ar  
     9     6    10 1   
    10     6    11 1   
    11     7     8 ar  
    12     8     9 1   
    13     9    12 1   
    14     9    13 1   
@<TRIPOS>SUBSTRUCTURE
     1 6AM         1 TEMP              0 ****  ****    0 ROOT
