@<TRIPOS>MOLECULE
molecule
   14    14     1     0     0
SMALL
bcc


@<TRIPOS>ATOM
      1 OAC          0.0000     0.0000     0.0000 oh         1 6AM      -0.598300
      2 CAI          1.3520     0.0000     0.0000 ca         1 6AM       0.964300
      3 NAF          2.0160     0.0000     1.1500 nb         1 6AM      -0.865500
      4 NAE          2.0150    -0.0050    -1.1500 nb         1 6AM      -0.865500
      5 CAG          3.3460    -0.0050    -1.1510 ca         1 6AM       1.005400
      6 NAA          4.0350    -0.0100    -2.3480 nv         1 6AM      -1.019000
      7 NAD          4.0100    -0.0000    -0.0010 nb         1 6AM      -0.867000
      8 CAH          3.3460    -0.0010     1.1500 ca         1 6AM       1.005400
      9 NAB          4.0360     0.0050     2.3450 nv         1 6AM      -1.019000
     10 H1           4.3290     0.8540    -2.7590 hn         1 6AM       0.453300
     11 H2           4.2410    -0.8760    -2.8040 hn         1 6AM       0.453300
     12 H4           3.5350     0.0070     3.2120 hn         1 6AM       0.453300
     13 H5           5.0370     0.0060     2.3450 hn         1 6AM       0.453300
     14 H3          -0.3140     0.8890    -0.0020 ho         1 6AM       0.447000
@<TRIPOS>BOND
     1     6     5 1
     2     5     4 ar
     3     5     7 ar
     4     4     2 ar
     5     7     8 ar
     6     2     1 1
     7     2     3 ar
     8     8     3 ar
     9     8     9 1
    10     6    10 1
    11     6    11 1
    12     9    12 1
    13     9    13 1
    14     1    14 1
@<TRIPOS>SUBSTRUCTURE
     1 6AM         1 TEMP              0 ****  ****    0 ROOT
