@<TRIPOS>MOLECULE
molecule
   33    35     1     0     0
SMALL
bcc


@<TRIPOS>ATOM
      1 C7           0.0000     0.0000     0.0000 ca         1 6AN      -0.099000
      2 C8           1.4020     0.0000     0.0000 ca         1 6AN      -0.014000
      3 C16          2.1290     0.0000     1.2040 ca         1 6AN      -0.169000
      4 C15          3.4900    -0.0000     1.1690 ca         1 6AN      -0.026000
      5 C14          4.1760     0.0000    -0.0440 ca         1 6AN      -0.250500
      6 S            5.9380     0.0010    -0.0440 s6         1 6AN       1.322100
      7 O3           6.3880    -1.4530    -0.0450 o          1 6AN      -0.707867
      8 O1           6.3390     0.5450    -1.2930 o          1 6AN      -0.707867
      9 O2           6.3390     0.5440     1.2060 o          1 6AN      -0.707867
     10 C13          3.5050     0.0010    -1.2290 ca         1 6AN      -0.027000
     11 C12          2.1010    -0.0000    -1.2350 ca         1 6AN      -0.060000
     12 C11          1.3810     0.0000    -2.4440 ca         1 6AN      -0.097000
     13 C10          0.0240     0.0000    -2.4280 ca         1 6AN      -0.178000
     14 C9          -0.6820    -0.0000    -1.2090 ca         1 6AN       0.105400
     15 N           -2.0450    -0.0010    -1.2170 ne         1 6AN      -0.555100
     16 C6          -2.7000     0.8060    -2.0270 cf         1 6AN       0.484900
     17 C1          -4.1750     0.8260    -2.0570 cf         1 6AN      -0.221600
     18 C2          -4.7970     1.3850    -3.0840 c2         1 6AN      -0.165700
     19 C3          -4.0730     1.9950    -4.2430 c3         1 6AN      -0.014000
     20 C4          -2.6310     2.2680    -3.9540 c2         1 6AN      -0.165700
     21 C5          -1.9810     1.7250    -2.9330 cf         1 6AN      -0.221600
     22 H7          -0.5460    -0.0000     0.9360 ha         1 6AN       0.136000
     23 H16          1.6090    -0.0000     2.1550 ha         1 6AN       0.118000
     24 H15          4.0480    -0.0010     2.0980 ha         1 6AN       0.151000
     25 H13          4.0530     0.0020    -2.1640 ha         1 6AN       0.155000
     26 H11          1.9110     0.0010    -3.3890 ha         1 6AN       0.130000
     27 H10         -0.5220    -0.0000    -3.3630 ha         1 6AN       0.127000
     28 H1          -4.7390     0.5190    -1.1840 ha         1 6AN       0.151000
     29 H5          -0.9900     2.0770    -2.6730 ha         1 6AN       0.151000
     30 H2          -5.8800     1.4020    -3.0850 ha         1 6AN       0.122000
     31 H31C        -4.1350     1.3180    -5.0860 hc         1 6AN       0.057200
     32 H32C        -4.5570     2.9290    -4.5020 hc         1 6AN       0.057200
     33 H4          -2.0920     2.9410    -4.6100 ha         1 6AN       0.122000
@<TRIPOS>BOND
     1     1     2 ar  
     2     1    14 ar  
     3     2     3 ar  
     4     2    11 ar  
     5     3     4 ar  
     6     4     5 ar  
     7     5     6 1   
     8     5    10 ar  
     9     6     7 1   
    10     6     8 1   
    11     6     9 1   
    12    10    11 ar  
    13    11    12 ar  
    14    12    13 ar  
    15    13    14 ar  
    16    14    15 1   
    17    15    16 2   
    18    16    17 1   
    19    16    21 1   
    20    17    18 2   
    21    18    19 1   
    22    19    20 1   
    23    20    21 2   
    24     1    22 1   
    25     3    23 1   
    26     4    24 1   
    27    10    25 1   
    28    12    26 1   
    29    13    27 1   
    30    17    28 1   
    31    21    29 1   
    32    18    30 1   
    33    19    31 1   
    34    19    32 1   
    35    20    33 1   
@<TRIPOS>SUBSTRUCTURE
     1 6AN         1 TEMP              0 ****  ****    0 ROOT
