@<TRIPOS>MOLECULE
6AN
   33    35     1     0     0
SMALL
bcc


@<TRIPOS>ATOM
      1 C7           0.0000     0.0000     0.0000 ca         1 6AN      -0.077000
      2 C8           1.4020     0.0000     0.0000 ca         1 6AN      -0.014000
      3 C16          2.1290     0.0000     1.2040 ca         1 6AN      -0.163000
      4 C15          3.4900    -0.0000     1.1690 ca         1 6AN       0.011000
      5 C14          4.1760     0.0000    -0.0440 ca         1 6AN      -0.095500
      6 S            5.9380     0.0010    -0.0440 s6         1 6AN       1.028100
      7 O3           6.3880    -1.4530    -0.0450 o          1 6AN      -0.655533
      8 O1           6.3390     0.5450    -1.2930 o          1 6AN      -0.655533
      9 O2           6.3390     0.5440     1.2060 o          1 6AN      -0.655533
     10 C13          3.5050     0.0010    -1.2290 ca         1 6AN       0.001000
     11 C12          2.1010    -0.0000    -1.2350 ca         1 6AN      -0.071000
     12 C11          1.3810     0.0000    -2.4440 ca         1 6AN      -0.061000
     13 C10          0.0240     0.0000    -2.4280 ca         1 6AN      -0.168000
     14 C9          -0.6820    -0.0000    -1.2090 ca         1 6AN       0.059400
     15 N           -2.0450    -0.0010    -1.2170 ne         1 6AN      -0.435100
     16 C6          -2.7000     0.8060    -2.0270 cf         1 6AN       0.426900
     17 C1          -4.1750     0.8260    -2.0570 cf         1 6AN      -0.196600
     18 C2          -4.7970     1.3850    -3.0840 c2         1 6AN      -0.151200
     19 C3          -4.0730     1.9950    -4.2430 c3         1 6AN       0.072000
     20 C4          -2.6310     2.2680    -3.9540 c2         1 6AN      -0.151200
     21 C5          -1.9810     1.7250    -2.9330 cf         1 6AN      -0.196600
     22 H7          -0.5460    -0.0000     0.9360 ha         1 6AN       0.108000
     23 H16          1.6090    -0.0000     2.1550 ha         1 6AN       0.096000
     24 H15          4.0480    -0.0010     2.0980 ha         1 6AN       0.122000
     25 H13          4.0530     0.0020    -2.1640 ha         1 6AN       0.128000
     26 H11          1.9110     0.0010    -3.3890 ha         1 6AN       0.103000
     27 H10         -0.5220    -0.0000    -3.3630 ha         1 6AN       0.110000
     28 H1          -4.7390     0.5190    -1.1840 ha         1 6AN       0.123500
     29 H5          -0.9900     2.0770    -2.6730 ha         1 6AN       0.123500
     30 H2          -5.8800     1.4020    -3.0850 ha         1 6AN       0.095500
     31 H31C        -4.1350     1.3180    -5.0860 hc         1 6AN       0.021700
     32 H32C        -4.5570     2.9290    -4.5020 hc         1 6AN       0.021700
     33 H4          -2.0920     2.9410    -4.6100 ha         1 6AN       0.095500
@<TRIPOS>BOND
     1     1     2 ar  
     2     1    14 ar  
     3     1    22 1   
     4     2     3 ar  
     5     2    11 ar  
     6     3     4 ar  
     7     3    23 1   
     8     4     5 ar  
     9     4    24 1   
    10     5     6 1   
    11     5    10 ar  
    12     6     7 1   
    13     6     8 1   
    14     6     9 1   
    15    10    11 ar  
    16    10    25 1   
    17    11    12 ar  
    18    12    13 ar  
    19    12    26 1   
    20    13    14 ar  
    21    13    27 1   
    22    14    15 1   
    23    15    16 2   
    24    16    17 1   
    25    16    21 1   
    26    17    18 2   
    27    17    28 1   
    28    18    19 1   
    29    18    30 1   
    30    19    20 1   
    31    19    31 1   
    32    19    32 1   
    33    20    21 2   
    34    20    33 1   
    35    21    29 1   
@<TRIPOS>SUBSTRUCTURE
     1 6AN         1 TEMP              0 ****  ****    0 ROOT
