@<TRIPOS>MOLECULE
molecule
   47    48     1     0     0
SMALL
bcc


@<TRIPOS>ATOM
      1 C1           1.4690     0.0000     0.0000 c3         1 6AO       0.023500
      2 N2           0.0000     0.0000     0.0000 nz         1 6AO      -0.793600
      3 C3           1.9720     0.0000     1.4200 c          1 6AO       0.651100
      4 O4           1.2440     0.3590     2.3210 o          1 6AO      -0.603100
      5 N5           3.2310    -0.3980     1.6890 ns         1 6AO      -0.515900
      6 C6           4.8520    -1.4190     3.2110 c3         1 6AO      -0.042100
      7 C7           3.7190    -0.3980     3.0710 c3         1 6AO       0.073400
      8 C8           4.3100    -2.8050     2.9810 ca         1 6AO      -0.108300
      9 C9           4.3000    -3.3370     1.7030 ca         1 6AO      -0.123000
     10 C10          3.8050    -4.6070     1.4860 ca         1 6AO      -0.119500
     11 C11          3.3150    -5.3540     2.5560 cp         1 6AO      -0.013000
     12 C12          3.3280    -4.8140     3.8390 ca         1 6AO      -0.119500
     13 C13          3.8290    -3.5440     4.0460 ca         1 6AO      -0.123000
     14 C14          2.7820    -6.7200     2.3270 cp         1 6AO      -0.056000
     15 C15          2.2930    -7.4660     3.3970 ca         1 6AO      -0.116000
     16 C16          1.7970    -8.7360     3.1810 ca         1 6AO      -0.123000
     17 C17          1.7880    -9.2690     1.9030 ca         1 6AO      -0.113000
     18 C18          2.2720    -8.5310     0.8380 ca         1 6AO      -0.123000
     19 C19          2.7640    -7.2580     1.0430 ca         1 6AO      -0.116000
     20 C20          1.9790     1.2490    -0.7210 c3         1 6AO      -0.104400
     21 C21          1.5740     1.1880    -2.1960 c3         1 6AO      -0.116100
     22 C22          4.2330     0.9730     3.4220 c2         1 6AO       0.425200
     23 N23          4.1920     1.9130     2.5540 n2         1 6AO      -0.807100
     24 H22          4.6380     1.1640     4.4090 h4         1 6AO      -0.010200
     25 H1           1.8310    -0.8840    -0.5110 hx         1 6AO       0.118700
     26 H21N        -0.3340     0.9130     0.2370 hn         1 6AO       0.462133
     27 H22N        -0.3340    -0.6620     0.6730 hn         1 6AO       0.462133
     28 H201         1.5470     2.1310    -0.2640 hc         1 6AO       0.097200
     29 H202         3.0580     1.2950    -0.6450 hc         1 6AO       0.097200
     30 H5           3.8490    -0.6430     0.9410 hn         1 6AO       0.330500
     31 H7           2.9090    -0.6630     3.7400 h1         1 6AO       0.104700
     32 H61C         5.2720    -1.3570     4.2080 hc         1 6AO       0.072200
     33 H62C         5.6220    -1.2060     2.4800 hc         1 6AO       0.072200
     34 H9           4.6810    -2.7560     0.8720 ha         1 6AO       0.126500
     35 H13          3.8400    -3.1230     5.0450 ha         1 6AO       0.126500
     36 H10          3.7970    -5.0230     0.4860 ha         1 6AO       0.142500
     37 H12          2.9500    -5.3910     4.6750 ha         1 6AO       0.142500
     38 H15          2.3000    -7.0500     4.3980 ha         1 6AO       0.130500
     39 H19          3.1430    -6.6820     0.2080 ha         1 6AO       0.130500
     40 H16          1.4170    -9.3180     4.0120 ha         1 6AO       0.138000
     41 H17          1.4000   -10.2670     1.7370 ha         1 6AO       0.140000
     42 H18          2.2600    -8.9520    -0.1600 ha         1 6AO       0.138000
     43 H211         1.6480     0.1670    -2.5490 hc         1 6AO       0.054700
     44 H212         2.2340     1.8200    -2.7780 hc         1 6AO       0.054700
     45 H213         0.5530     1.5350    -2.3050 hc         1 6AO       0.054700
     46 H23          4.5340     2.8240     2.7870 hn         1 6AO       0.416400
     47 H231        -0.3340    -0.2640    -0.9060 hn         1 6AO       0.462133
@<TRIPOS>BOND
     1     1     2 1   
     2     1     3 1   
     3     1    20 1   
     4     3     4 2   
     5     3     5 1   
     6     5     7 1   
     7     6     7 1   
     8     6     8 1   
     9     7    22 1   
    10     8     9 ar  
    11     8    13 ar  
    12     9    10 ar  
    13    10    11 ar  
    14    11    12 ar  
    15    11    14 1   
    16    12    13 ar  
    17    14    15 ar  
    18    14    19 ar  
    19    15    16 ar  
    20    16    17 ar  
    21    17    18 ar  
    22    18    19 ar  
    23    20    21 1   
    24    22    23 2   
    25    22    24 1   
    26     1    25 1   
    27     2    26 1   
    28     2    27 1   
    29    20    28 1   
    30    20    29 1   
    31     5    30 1   
    32     7    31 1   
    33     6    32 1   
    34     6    33 1   
    35     9    34 1   
    36    13    35 1   
    37    10    36 1   
    38    12    37 1   
    39    15    38 1   
    40    19    39 1   
    41    16    40 1   
    42    17    41 1   
    43    18    42 1   
    44    21    43 1   
    45    21    44 1   
    46    21    45 1   
    47    23    46 1   
    48    47     2 1   
@<TRIPOS>SUBSTRUCTURE
     1 6AO         1 TEMP              0 ****  ****    0 ROOT
