@<TRIPOS>MOLECULE
6AO
   47    48     1     0     0
SMALL
bcc


@<TRIPOS>ATOM
      1 C1           1.4690     0.0000     0.0000 c3         1 6AO      -0.160500
      2 N2           0.0000     0.0000     0.0000 nz         1 6AO       0.096400
      3 C3           1.9720     0.0000     1.4200 c          1 6AO       0.548100
      4 O4           1.2440     0.3590     2.3210 o          1 6AO      -0.632100
      5 N5           3.2310    -0.3980     1.6890 ns         1 6AO      -0.118900
      6 C6           4.8520    -1.4190     3.2110 c3         1 6AO       0.036900
      7 C7           3.7190    -0.3980     3.0710 c3         1 6AO      -0.087600
      8 C8           4.3100    -2.8050     2.9810 ca         1 6AO      -0.131300
      9 C9           4.3000    -3.3370     1.7030 ca         1 6AO      -0.095500
     10 C10          3.8050    -4.6070     1.4860 ca         1 6AO      -0.098500
     11 C11          3.3150    -5.3540     2.5560 cp         1 6AO      -0.002000
     12 C12          3.3280    -4.8140     3.8390 ca         1 6AO      -0.098500
     13 C13          3.8290    -3.5440     4.0460 ca         1 6AO      -0.095500
     14 C14          2.7820    -6.7200     2.3270 cp         1 6AO      -0.058000
     15 C15          2.2930    -7.4660     3.3970 ca         1 6AO      -0.095000
     16 C16          1.7970    -8.7360     3.1810 ca         1 6AO      -0.093000
     17 C17          1.7880    -9.2690     1.9030 ca         1 6AO      -0.083000
     18 C18          2.2720    -8.5310     0.8380 ca         1 6AO      -0.093000
     19 C19          2.7640    -7.2580     1.0430 ca         1 6AO      -0.095000
     20 C20          1.9790     1.2490    -0.7210 c3         1 6AO      -0.034400
     21 C21          1.5740     1.1880    -2.1960 c3         1 6AO      -0.010100
     22 C22          4.2330     0.9730     3.4220 c2         1 6AO       0.402200
     23 N23          4.1920     1.9130     2.5540 n2         1 6AO      -0.620100
     24 H22          4.6380     1.1640     4.4090 h4         1 6AO       0.015800
     25 H1           1.8310    -0.8840    -0.5110 hx         1 6AO       0.096700
     26 H21N        -0.3340     0.9010     0.2800 hn         1 6AO       0.230800
     27 H22N        -0.3340    -0.6930     0.6400 hn         1 6AO       0.230800
     28 H201         3.0580     1.2950    -0.6450 hc         1 6AO       0.057200
     29 H202         1.5470     2.1310    -0.2640 hc         1 6AO       0.057200
     30 H5           3.8450    -0.6540     0.9410 hn         1 6AO       0.189500
     31 H7           2.9090    -0.6630     3.7400 h1         1 6AO       0.082700
     32 H61C         5.2720    -1.3570     4.2080 hc         1 6AO       0.040200
     33 H62C         5.6220    -1.2060     2.4800 hc         1 6AO       0.040200
     34 H9           4.6810    -2.7560     0.8720 ha         1 6AO       0.102000
     35 H13          3.8400    -3.1230     5.0450 ha         1 6AO       0.102000
     36 H10          3.7970    -5.0230     0.4860 ha         1 6AO       0.120500
     37 H12          2.9500    -5.3910     4.6750 ha         1 6AO       0.120500
     38 H15          2.3000    -7.0500     4.3980 ha         1 6AO       0.108000
     39 H19          3.1430    -6.6820     0.2080 ha         1 6AO       0.108000
     40 H16          1.4170    -9.3180     4.0120 ha         1 6AO       0.109500
     41 H17          1.4000   -10.2670     1.7370 ha         1 6AO       0.110000
     42 H18          2.2600    -8.9520    -0.1600 ha         1 6AO       0.109500
     43 H211         1.6540     0.1680    -2.5510 hc         1 6AO       0.022367
     44 H212         2.2300     1.8260    -2.7770 hc         1 6AO       0.022367
     45 H213         0.5510     1.5290    -2.3040 hc         1 6AO       0.022367
     46 H23          3.8190     1.7360     1.6430 hn         1 6AO       0.289400
     47 H231        -0.3340    -0.2300    -0.9150 hn         1 6AO       0.230800
@<TRIPOS>BOND
     1     1     2 1   
     2     1     3 1   
     3     1    20 1   
     4     1    25 1   
     5     2    26 1   
     6     2    27 1   
     7     2    47 1   
     8     3     4 2   
     9     3     5 1   
    10     5     7 1   
    11     5    30 1   
    12     6     7 1   
    13     6     8 1   
    14     6    32 1   
    15     6    33 1   
    16     7    22 1   
    17     7    31 1   
    18     8     9 ar  
    19     8    13 ar  
    20     9    10 ar  
    21     9    34 1   
    22    10    11 ar  
    23    10    36 1   
    24    11    12 ar  
    25    11    14 1   
    26    12    13 ar  
    27    12    37 1   
    28    13    35 1   
    29    14    15 ar  
    30    14    19 ar  
    31    15    16 ar  
    32    15    38 1   
    33    16    17 ar  
    34    16    40 1   
    35    17    18 ar  
    36    17    41 1   
    37    18    19 ar  
    38    18    42 1   
    39    19    39 1   
    40    20    21 1   
    41    20    28 1   
    42    20    29 1   
    43    21    43 1   
    44    21    44 1   
    45    21    45 1   
    46    22    23 2   
    47    22    24 1   
    48    23    46 1   
@<TRIPOS>SUBSTRUCTURE
     1 6AO         1 TEMP              0 ****  ****    0 ROOT
