@<TRIPOS>MOLECULE
molecule
   17    18     1     0     0
SMALL
bcc


@<TRIPOS>ATOM
      1 N9           0.0000     0.0000     0.0000 na         1 6AP      -0.362000
      2 C8           1.3650     0.0000     0.0000 cc         1 6AP       0.407700
      3 N7           1.8080     0.0000     1.2230 nd         1 6AP      -0.582100
      4 C5           0.7600     0.0010     2.0830 ca         1 6AP      -0.224200
      5 C4          -0.4120     0.0000     1.3080 ca         1 6AP       0.482800
      6 N3          -1.5920    -0.0040     1.9190 nb         1 6AP      -0.808000
      7 C2          -1.6660     0.0030     3.2400 ca         1 6AP       0.991900
      8 N2          -2.9160     0.0030     3.8390 nv         1 6AP      -1.056500
      9 N1          -0.5860     0.0030     4.0100 nb         1 6AP      -0.841000
     10 C6           0.6330     0.0020     3.4830 ca         1 6AP       0.797200
     11 N6           1.7540     0.0020     4.2950 nv         1 6AP      -0.985500
     12 HN9         -0.5920     0.0000    -0.8070 hn         1 6AP       0.312700
     13 H8           1.9870    -0.0000    -0.8870 h5         1 6AP       0.077800
     14 HN21        -3.3660    -0.8630     4.0580 hn         1 6AP       0.443800
     15 HN22        -3.3680     0.8700     4.0530 hn         1 6AP       0.443800
     16 HN61         1.6510     0.0020     5.2900 hn         1 6AP       0.450300
     17 HN62         2.6680     0.0000     3.8860 hn         1 6AP       0.450300
@<TRIPOS>BOND
     1     1     2 1   
     2     1     5 1   
     3     1    12 1   
     4     2     3 2   
     5     2    13 1   
     6     3     4 1   
     7     4     5 ar  
     8     4    10 ar  
     9     5     6 ar  
    10     6     7 ar  
    11     7     8 1   
    12     7     9 ar  
    13     8    14 1   
    14     8    15 1   
    15     9    10 ar  
    16    10    11 1   
    17    11    16 1   
    18    11    17 1   
@<TRIPOS>SUBSTRUCTURE
     1 6AP         1 TEMP              0 ****  ****    0 ROOT
