@<TRIPOS>MOLECULE
molecule
   19    20     1     0     0
SMALL
bcc


@<TRIPOS>ATOM
      1 C10          0.0000     0.0000     0.0000 cc         1 6AQ       0.320200
      2 C02          5.6710    -0.0090     2.7140 ca         1 6AQ       0.122900
      3 C03          4.6180    -0.0150     3.6110 ca         1 6AQ      -0.142000
      4 C04          3.3150    -0.0100     3.1490 ca         1 6AQ      -0.123000
      5 C05          3.0650    -0.0030     1.7840 ca         1 6AQ       0.000800
      6 C06          4.1230     0.0020     0.8860 ca         1 6AQ      -0.123000
      7 C07          5.4230     0.0030     1.3510 ca         1 6AQ      -0.142000
      8 N08          1.7430     0.0000     1.3130 na         1 6AQ      -0.110000
      9 C09          1.3460     0.0000     0.0000 cd         1 6AQ      -0.272600
     10 N11         -0.4190     0.0000     1.2740 nc         1 6AQ      -0.687000
     11 C12          0.6160    -0.0040     2.0700 cd         1 6AQ       0.403400
     12 H1          -0.6350     0.0020    -0.8780 h4         1 6AQ       0.044100
     13 H2           4.8140    -0.0200     4.6760 ha         1 6AQ       0.153500
     14 H3           2.4900    -0.0140     3.8510 ha         1 6AQ       0.146000
     15 H4           3.9290     0.0100    -0.1800 ha         1 6AQ       0.146000
     16 H5           6.2490     0.0070     0.6510 ha         1 6AQ       0.153500
     17 H6           1.9920    -0.0000    -0.8700 h4         1 6AQ       0.176000
     18 H7           0.5810    -0.0060     3.1530 h5         1 6AQ       0.068100
     19 F01          6.9450    -0.0120     3.1680 f          1 6AQ      -0.135900
@<TRIPOS>BOND
     1     6     7 ar
     2     6     5 ar
     3     7     2 ar
     4     9     1 2
     5     9     8 1
     6     1    10 1
     7     8     5 1
     8     8    11 1
     9     5     4 ar
    10     2    19 1
    11     2     3 ar
    12    10    11 2
    13     4     3 ar
    14     1    12 1
    15     3    13 1
    16     4    14 1
    17     6    15 1
    18     7    16 1
    19     9    17 1
    20    11    18 1
@<TRIPOS>SUBSTRUCTURE
     1 6AQ         1 TEMP              0 ****  ****    0 ROOT
