@<TRIPOS>MOLECULE
molecule
   19    20     1     0     0
SMALL
bcc


@<TRIPOS>ATOM
      1 Br           0.0000     0.0000     0.0000 br         1 6AR      -0.084100
      2 C02          1.8910     0.0000     0.0000 ca         1 6AR      -0.033900
      3 C03          2.5810     0.0000     1.1990 ca         1 6AR      -0.077000
      4 C04          3.9620     0.0010     1.2020 ca         1 6AR      -0.148500
      5 C05          4.6580     0.0000     0.0000 ca         1 6AR       0.027800
      6 C06          3.9630     0.0000    -1.2010 ca         1 6AR      -0.148500
      7 C07          2.5820    -0.0050    -1.1990 ca         1 6AR      -0.077000
      8 N08          6.0610     0.0010     0.0010 na         1 6AR      -0.113000
      9 C09          6.8760     0.0020    -1.1010 cc         1 6AR      -0.271600
     10 C10          8.1440     0.0030    -0.6490 cd         1 6AR       0.320200
     11 N11          8.1100     0.0040     0.6920 nd         1 6AR      -0.686000
     12 C12          6.8680     0.0080     1.0940 cc         1 6AR       0.405400
     13 H1           2.0380     0.0000     2.1370 ha         1 6AR       0.152000
     14 H2           4.5030     0.0010     2.1410 ha         1 6AR       0.146000
     15 H3           4.5030    -0.0020    -2.1400 ha         1 6AR       0.146000
     16 H4           2.0390    -0.0050    -2.1360 ha         1 6AR       0.152000
     17 H5           6.5600     0.0010    -2.1380 h4         1 6AR       0.177000
     18 H6           9.0380     0.0020    -1.2610 h4         1 6AR       0.045100
     19 H7           6.5370     0.0100     2.1250 h5         1 6AR       0.068100
@<TRIPOS>BOND
     1    12    11 2   
     2    12     8 1   
     3    11    10 1   
     4     6     7 ar  
     5     6     5 ar  
     6     7     2 ar  
     7     8     5 1   
     8     8     9 1   
     9     5     4 ar  
    10    10     9 2   
    11     2     1 1   
    12     2     3 ar  
    13     4     3 ar  
    14     3    13 1   
    15     4    14 1   
    16     6    15 1   
    17     7    16 1   
    18     9    17 1   
    19    10    18 1   
    20    12    19 1   
@<TRIPOS>SUBSTRUCTURE
     1 6AR         1 TEMP              0 ****  ****    0 ROOT
