@<TRIPOS>MOLECULE
6AS
   57    57     1     0     0
SMALL
bcc


@<TRIPOS>ATOM
      1 O11         1.1630   -1.4580    0.5800 o         1 6AS     -0.828300
      2 C1          1.0610   -0.3850   -0.0770 c         1 6AS      0.896800
      3 O12         1.4460    0.7450    0.3380 o         1 6AS     -0.828300
      4 C2          0.4060   -0.4840   -1.4400 ce        1 6AS     -0.141200
      5 C3          0.8990    0.0100   -2.5870 cf        1 6AS     -0.186200
      6 C6          2.1750    0.7700   -2.6580 c3        1 6AS     -0.047900
      7 C4          0.2870   -0.2290   -3.8870 cf        1 6AS     -0.062000
      8 C5         -0.9350    0.0520   -4.3500 c2        1 6AS     -0.254200
      9 C1'        -2.1100    0.7180   -3.6970 c3        1 6AS      0.250200
     10 C2'        -2.4420    1.9770   -4.4940 c2        1 6AS     -0.035400
     11 C7'        -1.2730    2.7570   -4.9600 c3        1 6AS     -0.080900
     12 O1'        -1.9130    1.1300   -2.3490 oh        1 6AS     -0.595800
     13 C6'        -3.3270   -0.2570   -3.6560 c3        1 6AS     -0.031000
     14 C8'        -3.0760   -1.3420   -2.6180 c3        1 6AS     -0.090100
     15 C9'        -3.5710   -0.9090   -5.0080 c3        1 6AS     -0.090100
     16 C5'        -4.5560    0.5490   -3.2430 c3        1 6AS     -0.169400
     17 C4'        -4.8650    1.6470   -4.2190 c         1 6AS      0.596300
     18 O4'        -6.0370    1.9060   -4.5310 o         1 6AS     -0.575100
     19 C3'        -3.7070    2.3940   -4.7420 ce        1 6AS     -0.125600
     20 S          -3.8620    3.7910   -5.7140 ss        1 6AS     -0.232700
     21 CA1        -5.5130    4.3990   -5.5130 c3        1 6AS     -0.024300
     22 CA2        -5.5230    5.7960   -6.0780 c3        1 6AS     -0.070400
     23 CA3        -6.9200    6.3830   -6.0390 c3        1 6AS     -0.076400
     24 CA4        -6.9370    7.7910   -6.5950 c3        1 6AS     -0.079400
     25 CA5        -8.3310    8.3810   -6.5570 c3        1 6AS     -0.080400
     26 CA6        -8.3540    9.7830   -7.1090 c3        1 6AS     -0.091100
     27 H2         -0.5460   -1.0430   -1.4390 ha        1 6AS      0.110000
     28 H3          2.5310    1.0240   -1.6250 hc        1 6AS      0.038367
     29 H4          2.9600    0.1670   -3.1780 hc        1 6AS      0.038367
     30 H5          2.0290    1.7200   -3.2310 hc        1 6AS      0.038367
     31 H6          0.9950   -0.7040   -4.6000 ha        1 6AS      0.105000
     32 H7         -1.1570   -0.2080   -5.4020 ha        1 6AS      0.111000
     33 H8         -0.3860    2.5680   -4.3040 hc        1 6AS      0.060033
     34 H9         -1.4990    3.8570   -4.9570 hc        1 6AS      0.060033
     35 H10        -1.0080    2.4560   -6.0060 hc        1 6AS      0.060033
     36 H11        -0.9780    1.3520   -2.2300 ho        1 6AS      0.441000
     37 H12        -3.9420   -2.0440   -2.5810 hc        1 6AS      0.041700
     38 H13        -2.1530   -1.9140   -2.8820 hc        1 6AS      0.041700
     39 H14        -2.9290   -0.8850   -1.6090 hc        1 6AS      0.041700
     40 H15        -4.5540   -1.4380   -4.9990 hc        1 6AS      0.041700
     41 H16        -3.5860   -0.1420   -5.8190 hc        1 6AS      0.041700
     42 H17        -2.7740   -1.6590   -5.2320 hc        1 6AS      0.041700
     43 H18        -4.3590    1.0220   -2.2410 hc        1 6AS      0.081200
     44 H19        -5.4430   -0.1290   -3.1430 hc        1 6AS      0.081200
     45 H20        -5.8120    4.3970   -4.4380 h1        1 6AS      0.077700
     46 H21        -6.2370    3.7410   -6.0550 h1        1 6AS      0.077700
     47 H22        -4.8250    6.4500   -5.4900 hc        1 6AS      0.048200
     48 H23        -5.1540    5.7820   -7.1380 hc        1 6AS      0.048200
     49 H24        -7.2930    6.3900   -4.9810 hc        1 6AS      0.042200
     50 H25        -7.6170    5.7340   -6.6310 hc        1 6AS      0.042200
     51 H26        -6.5610    7.7830   -7.6520 hc        1 6AS      0.038700
     52 H27        -6.2390    8.4380   -6.0010 hc        1 6AS      0.038700
     53 H28        -9.0270    7.7310   -7.1500 hc        1 6AS      0.038700
     54 H29        -8.7050    8.3860   -5.4990 hc        1 6AS      0.038700
     55 H30        -7.6840   10.4510   -6.5150 hc        1 6AS      0.030033
     56 H31        -9.3890   10.1980   -7.0720 hc        1 6AS      0.030033
     57 H32        -8.0070    9.7940   -8.1700 hc        1 6AS      0.030033
@<TRIPOS>BOND
     1    1    2 1   
     2    2    3 1   
     3    2    4 1   
     4    4    5 2   
     5    4   27 1   
     6    5    6 1   
     7    5    7 1   
     8    6   28 1   
     9    6   29 1   
    10    6   30 1   
    11    7    8 2   
    12    7   31 1   
    13    8    9 1   
    14    8   32 1   
    15    9   10 1   
    16    9   12 1   
    17    9   13 1   
    18   10   11 1   
    19   10   19 2   
    20   11   33 1   
    21   11   34 1   
    22   11   35 1   
    23   12   36 1   
    24   13   14 1   
    25   13   15 1   
    26   13   16 1   
    27   14   37 1   
    28   14   38 1   
    29   14   39 1   
    30   15   40 1   
    31   15   41 1   
    32   15   42 1   
    33   16   17 1   
    34   16   43 1   
    35   16   44 1   
    36   17   18 2   
    37   17   19 1   
    38   19   20 1   
    39   20   21 1   
    40   21   22 1   
    41   21   45 1   
    42   21   46 1   
    43   22   23 1   
    44   22   47 1   
    45   22   48 1   
    46   23   24 1   
    47   23   49 1   
    48   23   50 1   
    49   24   25 1   
    50   24   51 1   
    51   24   52 1   
    52   25   26 1   
    53   25   53 1   
    54   25   54 1   
    55   26   55 1   
    56   26   56 1   
    57   26   57 1   
@<TRIPOS>SUBSTRUCTURE
     1 6AS         1 TEMP              0 ****  ****    0 ROOT
