@<TRIPOS>MOLECULE
molecule
   57    57     1     0     0
SMALL
bcc


@<TRIPOS>ATOM
      1 O11          0.0000     0.0000     0.0000 o          1 6AS      -0.836800
      2 C1           1.2160     0.0000     0.0000 c          1 6AS       0.860800
      3 O12          1.8910     0.0000     1.1690 o          1 6AS      -0.836800
      4 C2           1.9240    -0.0050    -1.2280 ce         1 6AS      -0.135200
      5 C3           1.2550     0.1280    -2.3960 cf         1 6AS      -0.154200
      6 C6           1.9680    -0.1010    -3.7040 c3         1 6AS      -0.046900
      7 C4          -0.1620     0.4930    -2.3900 cf         1 6AS      -0.026000
      8 C5          -0.8540     0.4980    -3.5300 c2         1 6AS      -0.314200
      9 C1'         -2.3130     0.8750    -3.5230 c3         1 6AS       0.248200
     10 C2'         -2.5080     2.0990    -4.3680 c2         1 6AS      -0.019400
     11 C7'         -1.4500     3.1700    -4.3360 c3         1 6AS      -0.076900
     12 O1'         -2.7170     1.1630    -2.1830 oh         1 6AS      -0.567800
     13 C6'         -3.1360    -0.2990    -4.0530 c3         1 6AS      -0.051000
     14 C8'         -3.0480    -1.4690    -3.0720 c3         1 6AS      -0.081100
     15 C9'         -2.5930    -0.7310    -5.4160 c3         1 6AS      -0.081100
     16 C5'         -4.6000     0.1410    -4.2000 c3         1 6AS      -0.166400
     17 C4'         -4.6330     1.2620    -5.2190 c          1 6AS       0.579300
     18 O4'         -5.5010     1.3150    -6.0650 o          1 6AS      -0.541100
     19 C3'         -3.5750     2.2830    -5.1470 ce         1 6AS      -0.119600
     20 S           -3.7220     3.7620    -6.0940 ss         1 6AS      -0.296700
     21 CA1         -5.2410     4.5130    -5.4490 c3         1 6AS       0.000700
     22 CA2         -5.5780     5.7640    -6.2630 c3         1 6AS      -0.066400
     23 CA3         -6.8600     6.3970    -5.7180 c3         1 6AS      -0.080400
     24 CA4         -7.1960     7.6480    -6.5320 c3         1 6AS      -0.081400
     25 CA5         -8.4780     8.2810    -5.9870 c3         1 6AS      -0.084400
     26 CA6         -8.8150     9.5310    -6.8010 c3         1 6AS      -0.092100
     27 H2           2.9730    -0.2760    -1.2390 ha         1 6AS       0.108000
     28 H3           1.5680    -0.9870    -4.1830 hc         1 6AS       0.024367
     29 H4           1.8220     0.7560    -4.3500 hc         1 6AS       0.024367
     30 H5           3.0270    -0.2380    -3.5190 hc         1 6AS       0.024367
     31 H6          -0.6480     0.7600    -1.4600 ha         1 6AS       0.222000
     32 H7          -0.3670     0.2310    -4.4610 ha         1 6AS       0.115000
     33 H8          -0.8120     3.0740    -5.2050 hc         1 6AS       0.062033
     34 H9          -0.8550     3.0620    -3.4370 hc         1 6AS       0.062033
     35 H10         -1.9230     4.1450    -4.3410 hc         1 6AS       0.062033
     36 H11         -2.8700     2.0890    -2.0930 ho         1 6AS       0.398000
     37 H12         -2.0250    -1.8230    -3.0220 hc         1 6AS       0.041867
     38 H13         -3.6920    -2.2730    -3.4090 hc         1 6AS       0.041867
     39 H14         -3.3650    -1.1410    -2.0890 hc         1 6AS       0.041867
     40 H15         -2.2520     0.1400    -5.9620 hc         1 6AS       0.041867
     41 H16         -1.7640    -1.4150    -5.2740 hc         1 6AS       0.041867
     42 H17         -3.3760    -1.2260    -5.9770 hc         1 6AS       0.041867
     43 H18         -5.2000    -0.6910    -4.5500 hc         1 6AS       0.072200
     44 H19         -4.9740     0.4980    -3.2490 hc         1 6AS       0.072200
     45 H20         -6.0560     3.8020    -5.5250 h1         1 6AS       0.063200
     46 H21         -5.0970     4.7850    -4.4100 h1         1 6AS       0.063200
     47 H22         -5.7230     5.4910    -7.3010 hc         1 6AS       0.050700
     48 H23         -4.7640     6.4740    -6.1860 hc         1 6AS       0.050700
     49 H24         -7.6740     5.6860    -5.7950 hc         1 6AS       0.043200
     50 H25         -6.7150     6.6690    -4.6800 hc         1 6AS       0.043200
     51 H26         -7.3410     7.3750    -7.5700 hc         1 6AS       0.041200
     52 H27         -6.3820     8.3580    -6.4550 hc         1 6AS       0.041200
     53 H28         -9.2920     7.5700    -6.0630 hc         1 6AS       0.040200
     54 H29         -8.3330     8.5540    -4.9490 hc         1 6AS       0.040200
     55 H30         -8.0160    10.2550    -6.6990 hc         1 6AS       0.030700
     56 H31         -9.7410     9.9610    -6.4370 hc         1 6AS       0.030700
     57 H32         -8.9280     9.2630    -7.8450 hc         1 6AS       0.030700
@<TRIPOS>BOND
     1    26    25 1   
     2    25    24 1   
     3    24    23 1   
     4    22    23 1   
     5    22    21 1   
     6     6     5 1   
     7    21    20 1   
     8    18    17 2   
     9     5     4 2   
    10     5     7 1   
    11    17    16 1   
    12    17    19 1   
    13     4     2 1   
    14    20    19 1   
    15    16    13 1   
    16    19    10 2   
    17     8     7 2   
    18     8     9 1   
    19    10     9 1   
    20    10    11 1   
    21     2     1 1   
    22     2     3 1   
    23     9    13 1   
    24     9    12 1   
    25    13    15 1   
    26    13    14 1   
    27     4    27 1   
    28     6    28 1   
    29     6    29 1   
    30     6    30 1   
    31     7    31 1   
    32     8    32 1   
    33    11    33 1   
    34    11    34 1   
    35    11    35 1   
    36    12    36 1   
    37    14    37 1   
    38    14    38 1   
    39    14    39 1   
    40    15    40 1   
    41    15    41 1   
    42    15    42 1   
    43    16    43 1   
    44    16    44 1   
    45    21    45 1   
    46    21    46 1   
    47    22    47 1   
    48    22    48 1   
    49    23    49 1   
    50    23    50 1   
    51    24    51 1   
    52    24    52 1   
    53    25    53 1   
    54    25    54 1   
    55    26    55 1   
    56    26    56 1   
    57    26    57 1   
@<TRIPOS>SUBSTRUCTURE
     1 6AS         1 TEMP              0 ****  ****    0 ROOT
