@<TRIPOS>MOLECULE
molecule
   47    49     1     0     0
SMALL
bcc


@<TRIPOS>ATOM
      1 OAI          0.0000     0.0000     0.0000 o          1 6AT      -0.829833
      2 PBE          1.6100     0.0000     0.0000 p5         1 6AT       1.336900
      3 OAH          2.1040     0.0000     1.3950 o          1 6AT      -0.829833
      4 OAC          2.1480    -1.3140    -0.7590 o          1 6AT      -0.829833
      5 OAS          2.1460     1.3150    -0.7590 os         1 6AT      -0.734800
      6 PBG          2.3280     2.8570    -0.3310 p5         1 6AT       1.518800
      7 OAK          2.9530     2.9270     1.0090 o          1 6AT      -0.871500
      8 OAE          0.8890     3.5770    -0.2920 o          1 6AT      -0.871500
      9 OAT          3.2730     3.6030    -1.4020 os         1 6AT      -0.723800
     10 PBF          4.1530     4.9500    -1.3700 p5         1 6AT       1.446800
     11 OAJ          5.5460     4.6640    -0.6160 o          1 6AT      -0.857500
     12 OAD          3.4100     6.0070    -0.6480 o          1 6AT      -0.857500
     13 O5'          4.4460     5.4360    -2.8770 os         1 6AT      -0.585200
     14 C5'          5.1170     6.6600    -3.1830 c3         1 6AT       0.241400
     15 C4'          5.2310     6.8120    -4.7020 c3         1 6AT       0.123100
     16 O4'          3.9310     7.0550    -5.2810 os         1 6AT      -0.366600
     17 C3'          6.0610     8.0660    -5.0550 c3         1 6AT       0.078100
     18 O3'          7.4110     7.7050    -5.3530 oh         1 6AT      -0.582800
     19 C2'          5.3630     8.6360    -6.3100 c3         1 6AT       0.076100
     20 O2'          6.2600     8.6450    -7.4220 oh         1 6AT      -0.571800
     21 C1'          4.1940     7.6600    -6.5660 c3         1 6AT       0.256800
     22 N9           3.0140     8.3890    -7.0380 na         1 6AT      -0.255000
     23 C8           2.0100     8.8910    -6.2610 cc         1 6AT       0.402700
     24 N7           1.1230     9.4780    -7.0080 nd         1 6AT      -0.615100
     25 C5           1.4980     9.3930    -8.3080 ca         1 6AT      -0.238200
     26 C4           2.7180     8.6980    -8.3410 ca         1 6AT       0.481800
     27 N3           3.3070     8.4780    -9.5140 nb         1 6AT      -0.767000
     28 C2           2.7520     8.9070   -10.6360 ca         1 6AT       0.725300
     29 S2           3.5710     8.5910   -12.1640 ss         1 6AT      -0.326400
     30 CAA          2.4060     9.3710   -13.3110 c3         1 6AT      -0.011000
     31 N1           1.6000     9.5670   -10.6500 nb         1 6AT      -0.841000
     32 C6           0.9500     9.8370    -9.5240 ca         1 6AT       0.714200
     33 N6          -0.2500    10.5260    -9.5490 nv         1 6AT      -1.016500
     34 H5           4.5530     7.4910    -2.7780 h1         1 6AT       0.027700
     35 H6           6.1080     6.6480    -2.7460 h1         1 6AT       0.027700
     36 H7           5.6790     5.9300    -5.1420 h1         1 6AT       0.082700
     37 H8           6.0240     8.7840    -4.2450 h1         1 6AT       0.044700
     38 H9           7.9970     8.2100    -4.8140 ho         1 6AT       0.384000
     39 H10          4.9860     9.6320    -6.1120 h1         1 6AT       0.039700
     40 H11          6.6470     9.5010    -7.5070 ho         1 6AT       0.381000
     41 H12          4.4880     6.9030    -7.2830 h2         1 6AT       0.098700
     42 H13          1.9600     8.8110    -5.1820 h5         1 6AT       0.098800
     43 H14          2.7710     9.2620   -14.3250 h1         1 6AT       0.049033
     44 H15          2.3140    10.4230   -13.0720 h1         1 6AT       0.049033
     45 H16          1.4380     8.8930   -13.2230 h1         1 6AT       0.049033
     46 H17         -0.6330    10.8330   -10.4210 hn         1 6AT       0.424300
     47 H18         -0.7350    10.7170    -8.6940 hn         1 6AT       0.424300
@<TRIPOS>BOND
     1    30    29 1
     2    29    28 1
     3    31    28 ar
     4    31    32 ar
     5    28    27 ar
     6    33    32 1
     7    32    25 ar
     8    27    26 ar
     9    25    26 ar
    10    25    24 1
    11    26    22 1
    12    24    23 2
    13    22    23 1
    14    22    21 1
    15    16    21 1
    16    16    15 1
    17    21    19 1
    18    15    14 1
    19    15    17 1
    20    13    14 1
    21    13    10 1
    22    19    20 1
    23    19    17 1
    24    12    10 1
    25    17    18 1
    26    10     9 1
    27    10    11 1
    28     7     6 1
    29     9     6 1
    30     6     8 1
    31     6     5 1
    32     5     2 1
    33     3     2 1
    34     2     4 1
    35     2     1 1
    36    14    34 1
    37    14    35 1
    38    15    36 1
    39    17    37 1
    40    18    38 1
    41    19    39 1
    42    20    40 1
    43    21    41 1
    44    23    42 1
    45    30    43 1
    46    30    44 1
    47    30    45 1
    48    33    46 1
    49    33    47 1
@<TRIPOS>SUBSTRUCTURE
     1 6AT         1 TEMP              0 ****  ****    0 ROOT
