@<TRIPOS>MOLECULE
6AU
   37    38     1     0     0
SMALL
bcc


@<TRIPOS>ATOM
      1 O3P          0.0000     0.0000     0.0000 o          1 6AU      -0.705833
      2 P            1.4800     0.0000     0.0000 p5         1 6AU       0.707900
      3 O1P          2.0160     0.0000     1.5190 o          1 6AU      -0.705833
      4 O2P          2.0170    -1.3140    -0.7600 o          1 6AU      -0.705833
      5 O5'          2.0170     1.3150    -0.7580 os         1 6AU      -0.471200
      6 C5'          1.6280     2.6400    -0.3890 c3         1 6AU       0.287400
      7 C4'          2.3170     3.6500    -1.3080 c3         1 6AU       0.147100
      8 C3'          2.0110     5.0920    -0.8500 c3         1 6AU       0.129100
      9 C2'          1.8660     5.8830    -2.1690 c3         1 6AU       0.119100
     10 O2'          2.8530     6.9140    -2.2470 oh         1 6AU      -0.545800
     11 C1'          2.1020     4.8240    -3.2700 c3         1 6AU       0.166500
     12 O4'          1.7750     3.5640    -2.6440 os         1 6AU      -0.335600
     13 N1           1.2220     5.0730    -4.4140 n          1 6AU       0.093000
     14 C6           1.7470     5.6210    -5.5660 cc         1 6AU      -0.161600
     15 C7           3.1830     5.9550    -5.6460 c          1 6AU       0.585300
     16 C72          3.8910     5.9230    -6.9760 c3         1 6AU      -0.078100
     17 O71          3.7910     6.2530    -4.6450 o          1 6AU      -0.533100
     18 C5           0.9280     5.8500    -6.6280 cd         1 6AU      -0.343200
     19 C4          -0.4940     5.5020    -6.5020 c          1 6AU       0.624700
     20 O4          -1.2610     5.6890    -7.4270 o          1 6AU      -0.720500
     21 N3          -0.9330     4.9690    -5.3430 ns         1 6AU      -0.142500
     22 C2          -0.0810     4.7580    -4.3240 c          1 6AU       0.566500
     23 O2          -0.5030     4.2750    -3.2910 o          1 6AU      -0.637500
     24 O3'          3.0920     5.6100    -0.0720 oh         1 6AU      -0.563800
     25 H5'          0.5540     2.7400    -0.4840 h1         1 6AU      -0.016800
     26 H5'A         1.9190     2.8290     0.6370 h1         1 6AU      -0.016800
     27 H4'          3.3870     3.4820    -1.3270 h1         1 6AU       0.032700
     28 H3'          1.0840     5.1210    -0.2900 h1         1 6AU       0.019700
     29 H2'          0.8690     6.2970    -2.2530 h1         1 6AU       0.005700
     30 HO2'         2.4610     7.7420    -2.0260 ho         1 6AU       0.361000
     31 H1'          3.1410     4.8300    -3.5780 h2         1 6AU       0.079700
     32 H72          3.6060     6.7900    -7.5580 hc         1 6AU       0.019700
     33 H72A         4.9630     5.9330    -6.8140 hc         1 6AU       0.019700
     34 H72B         3.6150     5.0220    -7.5100 hc         1 6AU       0.019700
     35 H5           1.3140     6.2790    -7.5450 ha         1 6AU       0.135000
     36 HN3         -1.8980     4.7250    -5.2420 hn         1 6AU       0.196500
     37 HO3'         2.7570     5.9630     0.7360 ho         1 6AU       0.369000
@<TRIPOS>BOND
     1     1     2 1   
     2     2     3 1   
     3     2     4 1   
     4     2     5 1   
     5     5     6 1   
     6     6     7 1   
     7     6    25 1   
     8     6    26 1   
     9     7     8 1   
    10     7    12 1   
    11     7    27 1   
    12     8     9 1   
    13     8    24 1   
    14     8    28 1   
    15     9    10 1   
    16     9    11 1   
    17     9    29 1   
    18    10    30 1   
    19    11    12 1   
    20    11    13 1   
    21    11    31 1   
    22    13    14 1   
    23    13    22 1   
    24    14    15 1   
    25    14    18 2   
    26    15    16 1   
    27    15    17 2   
    28    16    32 1   
    29    16    33 1   
    30    16    34 1   
    31    18    19 1   
    32    18    35 1   
    33    19    20 2   
    34    19    21 1   
    35    21    22 1   
    36    21    36 1   
    37    22    23 2   
    38    24    37 1   
@<TRIPOS>SUBSTRUCTURE
     1 6AU         1 TEMP              0 ****  ****    0 ROOT
