@<TRIPOS>MOLECULE
molecule
   37    38     1     0     0
SMALL
bcc


@<TRIPOS>ATOM
      1 O3P          0.0000     0.0000     0.0000 o          1 6AU      -0.906833
      2 P            1.4800     0.0000     0.0000 p5         1 6AU       1.175900
      3 O1P          2.0160     0.0000     1.5190 o          1 6AU      -0.906833
      4 O2P          2.0170    -1.3140    -0.7600 o          1 6AU      -0.906833
      5 O5'          2.0170     1.3150    -0.7580 os         1 6AU      -0.565200
      6 C5'          1.6280     2.6400    -0.3890 c3         1 6AU       0.228400
      7 C4'          2.3170     3.6500    -1.3080 c3         1 6AU       0.126100
      8 C3'          2.0110     5.0920    -0.8500 c3         1 6AU       0.091100
      9 C2'          1.8660     5.8830    -2.1690 c3         1 6AU       0.081100
     10 O2'          2.8530     6.9140    -2.2470 oh         1 6AU      -0.573800
     11 C1'          2.1020     4.8240    -3.2700 c3         1 6AU       0.288500
     12 O4'          1.7750     3.5640    -2.6440 os         1 6AU      -0.347600
     13 N1           1.2220     5.0730    -4.4140 n          1 6AU      -0.339000
     14 C6           1.7470     5.6210    -5.5660 cc         1 6AU       0.031400
     15 C7           3.1830     5.9550    -5.6460 c          1 6AU       0.550300
     16 C72          3.8910     5.9230    -6.9760 c3         1 6AU      -0.184100
     17 O71          3.7910     6.2530    -4.6450 o          1 6AU      -0.460100
     18 C5           0.9280     5.8500    -6.6280 cd         1 6AU      -0.324200
     19 C4          -0.4940     5.5020    -6.5020 c          1 6AU       0.708700
     20 O4          -1.2610     5.6890    -7.4270 o          1 6AU      -0.653500
     21 N3          -0.9330     4.9690    -5.3430 ns         1 6AU      -0.562500
     22 C2          -0.0810     4.7580    -4.3240 c          1 6AU       0.790500
     23 O2          -0.5030     4.2750    -3.2910 o          1 6AU      -0.568500
     24 O3'          3.0920     5.6100    -0.0720 oh         1 6AU      -0.583800
     25 H5'          0.5540     2.7400    -0.4840 h1         1 6AU       0.027700
     26 H5'A         1.9190     2.8290     0.6370 h1         1 6AU       0.027700
     27 H4'          3.3870     3.4820    -1.3270 h1         1 6AU       0.073700
     28 H3'          1.0840     5.1210    -0.2900 h1         1 6AU       0.057700
     29 H2'          0.8690     6.2970    -2.2530 h1         1 6AU       0.039700
     30 HO2'         2.4610     7.7420    -2.0260 ho         1 6AU       0.381000
     31 H1'          3.1410     4.8300    -3.5780 h2         1 6AU       0.104700
     32 H72          3.6060     6.7900    -7.5580 hc         1 6AU       0.063700
     33 H72A         4.9630     5.9330    -6.8140 hc         1 6AU       0.063700
     34 H72B         3.6150     5.0220    -7.5100 hc         1 6AU       0.063700
     35 H5           1.3140     6.2790    -7.5450 ha         1 6AU       0.162000
     36 HN3         -1.8980     4.7250    -5.2420 hn         1 6AU       0.360500
     37 HO3'         2.7570     5.9630     0.7360 ho         1 6AU       0.388000
@<TRIPOS>BOND
     1     1     2 1
     2     2     5 1
     3     2     4 1
     4     3     2 1
     5     6     5 1
     6     6     7 1
     7     6    25 1
     8     6    26 1
     9     7     8 1
    10     7    27 1
    11     8    24 1
    12     8    28 1
    13     9     8 1
    14     9    10 1
    15     9    29 1
    16    10    30 1
    17    11     9 1
    18    11    31 1
    19    12     7 1
    20    12    11 1
    21    13    11 1
    22    14    13 1
    23    14    15 1
    24    15    17 2
    25    16    15 1
    26    16    32 1
    27    16    33 1
    28    16    34 1
    29    18    14 2
    30    18    35 1
    31    19    18 1
    32    19    21 1
    33    20    19 2
    34    21    22 1
    35    21    36 1
    36    22    13 1
    37    22    23 2
    38    24    37 1
@<TRIPOS>SUBSTRUCTURE
     1 6AU         1 TEMP              0 ****  ****    0 ROOT
