@<TRIPOS>MOLECULE
6AV
   21    22     1     0     0
SMALL
bcc


@<TRIPOS>ATOM
      1 N1           0.0000     0.0000     0.0000 na         1 6AV       0.414000
      2 C2          -2.4800     0.0020    -3.3600 ca         1 6AV      -0.011600
      3 C3          -1.4470     0.9190    -3.2570 ca         1 6AV      -0.107000
      4 C4          -0.6270     0.9200    -2.1460 ca         1 6AV      -0.061000
      5 C6           1.3710     0.0000     0.0000 cc         1 6AV      -0.446600
      6 C7           1.7600     0.0000     1.2900 cd         1 6AV       0.324200
      7 C8          -0.3980     0.0050     1.2990 cc         1 6AV       0.212400
      8 Cl          -3.5090     0.0080    -4.7580 cl         1 6AV      -0.013400
      9 C1          -2.6900    -0.9220    -2.3530 ca         1 6AV      -0.118000
     10 C5          -0.8340     0.0000    -1.1300 ca         1 6AV      -0.215200
     11 C           -1.8690    -0.9280    -1.2330 ca         1 6AV       0.060600
     12 N           -2.0800    -1.8600    -0.2130 nv         1 6AV      -0.533200
     13 N2           0.6620    -0.0000     2.0590 nd         1 6AV      -0.618000
     14 H1          -1.2840     1.6380    -4.0500 ha         1 6AV       0.121000
     15 H2           0.1800     1.6390    -2.0700 ha         1 6AV       0.119000
     16 H3           2.0170    -0.0020    -0.8700 h4         1 6AV       0.155000
     17 H4           2.7840    -0.0020     1.6450 h4         1 6AV       0.002100
     18 H5          -1.4250     0.0070     1.6450 h5         1 6AV       0.025100
     19 H6          -3.4970    -1.6400    -2.4360 ha         1 6AV       0.126000
     20 H7          -1.3870    -2.5570    -0.0220 hn         1 6AV       0.283300
     21 H8          -2.9080    -1.8110     0.3460 hn         1 6AV       0.283300
@<TRIPOS>BOND
     1     1     5 1   
     2     1     7 1   
     3     1    10 1   
     4     2     3 ar  
     5     2     8 1   
     6     2     9 ar  
     7     3     4 ar  
     8     3    14 1   
     9     4    10 ar  
    10     4    15 1   
    11     5     6 2   
    12     5    16 1   
    13     6    13 1   
    14     6    17 1   
    15     7    13 2   
    16     7    18 1   
    17     9    11 ar  
    18     9    19 1   
    19    10    11 ar  
    20    11    12 1   
    21    12    20 1   
    22    12    21 1   
@<TRIPOS>SUBSTRUCTURE
     1 6AV         1 TEMP              0 ****  ****    0 ROOT
