@<TRIPOS>MOLECULE
molecule
   78    79     1     0     0
SMALL
bcc


@<TRIPOS>ATOM
      1 O31          0.0000     0.0000     0.0000 o          1 6AW      -0.614000
      2 C30          1.2150     0.0000     0.0000 c          1 6AW       0.749100
      3 O32          1.8880     0.0000     1.1670 os         1 6AW      -0.441900
      4 C33          1.0950     0.0000     2.3840 c3         1 6AW       0.254700
      5 C34          2.0130    -0.0000     3.5790 cc         1 6AW      -0.162700
      6 S38          2.6440    -1.4240     4.4030 ss         1 6AW      -0.193300
      7 C37          3.4880    -0.4260     5.5040 cc         1 6AW       0.448300
      8 N36          3.2780     0.8170     5.2290 nd         1 6AW      -0.681000
      9 C35          2.4960     1.0800     4.2010 cd         1 6AW       0.389200
     10 N29          1.8900    -0.0060    -1.1670 ns         1 6AW      -0.566900
     11 C03          1.1580    -0.0120    -2.4360 c3         1 6AW       0.130700
     12 C02          0.7950     1.4240    -2.8220 c3         1 6AW      -0.101400
     13 C01         -0.1830     1.9960    -1.7940 c3         1 6AW      -0.090100
     14 C04          2.0360    -0.6270    -3.5270 c3         1 6AW      -0.096400
     15 C05          2.2970    -2.1000    -3.2040 c3         1 6AW      -0.096400
     16 C06          3.1740    -2.7150    -4.2940 c3         1 6AW       0.115700
     17 C07          3.3320    -4.2150    -4.0370 c3         1 6AW      -0.100400
     18 C08          4.1040    -4.8520    -5.1940 c3         1 6AW      -0.091100
     19 N09          4.4920    -2.0760    -4.2790 ns         1 6AW      -0.577900
     20 C10          5.2460    -2.0570    -5.3970 c          1 6AW       0.665100
     21 O11          4.8320    -2.5690    -6.4150 o          1 6AW      -0.608100
     22 C12          6.6010    -1.4000    -5.3810 c3         1 6AW       0.067700
     23 C13          6.4480     0.0780    -5.0150 c3         1 6AW       0.123400
     24 O14          5.5240     0.6980    -5.9120 oh         1 6AW      -0.608800
     25 N15          7.2150    -1.5120    -6.7070 ns         1 6AW      -0.580900
     26 C16          8.5550    -1.4740    -6.8350 c          1 6AW       0.788100
     27 O17          9.2570    -1.3460    -5.8490 o          1 6AW      -0.656100
     28 N18          9.1190    -1.5780    -8.0540 n          1 6AW      -0.503800
     29 C19          8.2750    -1.7320    -9.2410 c3         1 6AW       0.088300
     30 C20         10.5770    -1.5360    -8.1930 c3         1 6AW       0.105700
     31 C21         11.1310    -2.9350    -8.0960 cd         1 6AW       0.352600
     32 N28         11.3990    -3.5170    -6.9450 nd         1 6AW      -0.655000
     33 C24         11.8700    -4.7170    -6.9880 cc         1 6AW       0.460700
     34 C25         12.2370    -5.5440    -5.7820 c3         1 6AW      -0.098000
     35 C27         11.3970    -6.8230    -5.7660 c3         1 6AW      -0.090600
     36 C26         13.7210    -5.9090    -5.8470 c3         1 6AW      -0.090600
     37 S23         12.0170    -5.2350    -8.6110 ss         1 6AW      -0.225300
     38 C22         11.3840    -3.6880    -9.1710 cc         1 6AW      -0.188400
     39 H1           0.4710     0.8850     2.4090 h1         1 6AW       0.065200
     40 H2           0.4700    -0.8840     2.4090 h1         1 6AW       0.065200
     41 H3           4.1090    -0.7840     6.3160 h5         1 6AW       0.063100
     42 H4           2.2580     2.0900     3.8890 h4         1 6AW       0.049100
     43 H5           2.8900     0.0330    -1.1660 hn         1 6AW       0.320500
     44 H6           0.2530    -0.5970    -2.3280 h1         1 6AW       0.083700
     45 H7           0.3330     1.4280    -3.8010 hc         1 6AW       0.045200
     46 H8           1.6920     2.0300    -2.8430 hc         1 6AW       0.045200
     47 H9           0.3500     2.2280    -0.8790 hc         1 6AW       0.041033
     48 H10         -0.9570     1.2670    -1.5870 hc         1 6AW       0.041033
     49 H11         -0.6330     2.8990    -2.1880 hc         1 6AW       0.041033
     50 H12          2.9790    -0.0960    -3.5750 hc         1 6AW       0.057700
     51 H13          1.5310    -0.5520    -4.4830 hc         1 6AW       0.057700
     52 H14          2.8020    -2.1750    -2.2480 hc         1 6AW       0.053700
     53 H15          1.3540    -2.6310    -3.1560 hc         1 6AW       0.053700
     54 H16          2.7090    -2.5610    -5.2610 h1         1 6AW       0.084700
     55 H17          3.8770    -4.3670    -3.1130 hc         1 6AW       0.043200
     56 H18          2.3540    -4.6730    -3.9600 hc         1 6AW       0.043200
     57 H19          3.9810    -5.9280    -5.1610 hc         1 6AW       0.041367
     58 H20          3.7220    -4.4740    -6.1350 hc         1 6AW       0.041367
     59 H21          5.1550    -4.6060    -5.1060 hc         1 6AW       0.041367
     60 H22          4.8550    -1.6970    -3.4260 hn         1 6AW       0.310500
     61 H23          7.2320    -1.8900    -4.6480 h1         1 6AW       0.102700
     62 H24          6.0770     0.1620    -4.0000 h1         1 6AW       0.036200
     63 H25          7.4100     0.5700    -5.0890 h1         1 6AW       0.036200
     64 H26          5.5890     1.6350    -5.8320 ho         1 6AW       0.405000
     65 H27          6.6380    -1.6090    -7.5190 hn         1 6AW       0.338500
     66 H28          7.6960    -2.6440    -9.1570 h1         1 6AW       0.040367
     67 H29          7.6040    -0.8850    -9.3210 h1         1 6AW       0.040367
     68 H30          8.9000    -1.7820   -10.1250 h1         1 6AW       0.040367
     69 H31         10.8360    -1.1110    -9.1550 h1         1 6AW       0.072700
     70 H32         10.9980    -0.9260    -7.4030 h1         1 6AW       0.072700
     71 H33         12.0440    -4.9740    -4.8820 hc         1 6AW       0.086700
     72 H34         11.6110    -7.3840    -4.8640 hc         1 6AW       0.041200
     73 H35         10.3450    -6.5640    -5.7900 hc         1 6AW       0.041200
     74 H36         11.6400    -7.4260    -6.6320 hc         1 6AW       0.041200
     75 H37         14.3120    -5.0040    -5.9220 hc         1 6AW       0.041200
     76 H38         13.9030    -6.5320    -6.7140 hc         1 6AW       0.041200
     77 H39         13.9990    -6.4490    -4.9500 hc         1 6AW       0.041200
     78 H40         11.2320    -3.3980   -10.2030 h4         1 6AW       0.175000
@<TRIPOS>BOND
     1    35    34 1
     2    34    36 1
     3    34    33 1
     4    24    23 1
     5    23    22 1
     6    27    26 2
     7    21    20 2
     8    33    32 2
     9    33    37 1
    10    32    31 1
    11    26    25 1
    12    26    28 1
    13    22    20 1
    14    22    25 1
    15    20    19 1
    16    18    17 1
    17    31    30 1
    18    31    38 2
    19    30    28 1
    20    37    38 1
    21    28    29 1
    22    19    16 1
    23    17    16 1
    24     7     8 2
    25     7     6 1
    26    16    15 1
    27     8     9 1
    28     6     5 1
    29    15    14 1
    30     9     5 2
    31     5     4 1
    32    11    14 1
    33    11    10 1
    34    11    12 1
    35    10     2 1
    36    12    13 1
    37     3     4 1
    38     3     2 1
    39     2     1 2
    40     4    39 1
    41     4    40 1
    42     7    41 1
    43     9    42 1
    44    10    43 1
    45    11    44 1
    46    12    45 1
    47    12    46 1
    48    13    47 1
    49    13    48 1
    50    13    49 1
    51    14    50 1
    52    14    51 1
    53    15    52 1
    54    15    53 1
    55    16    54 1
    56    17    55 1
    57    17    56 1
    58    18    57 1
    59    18    58 1
    60    18    59 1
    61    19    60 1
    62    22    61 1
    63    23    62 1
    64    23    63 1
    65    24    64 1
    66    25    65 1
    67    29    66 1
    68    29    67 1
    69    29    68 1
    70    30    69 1
    71    30    70 1
    72    34    71 1
    73    35    72 1
    74    35    73 1
    75    35    74 1
    76    36    75 1
    77    36    76 1
    78    36    77 1
    79    38    78 1
@<TRIPOS>SUBSTRUCTURE
     1 6AW         1 TEMP              0 ****  ****    0 ROOT
