@<TRIPOS>MOLECULE
6AW
   78    79     1     0     0
SMALL
bcc


@<TRIPOS>ATOM
      1 O31          0.0000     0.0000     0.0000 o          1 6AW      -0.659000
      2 C30          1.2150     0.0000     0.0000 c          1 6AW       0.681100
      3 O32          1.8880     0.0000     1.1670 os         1 6AW      -0.425900
      4 C33          1.0950     0.0000     2.3840 c3         1 6AW       0.349700
      5 C34          2.0130    -0.0000     3.5790 cc         1 6AW      -0.133700
      6 S38          2.6440    -1.4240     4.4030 ss         1 6AW      -0.299300
      7 C37          3.4880    -0.4260     5.5040 cc         1 6AW       0.476300
      8 N36          3.2780     0.8170     5.2290 nd         1 6AW      -0.569000
      9 C35          2.4960     1.0800     4.2010 cd         1 6AW       0.377200
     10 N29          1.8900    -0.0060    -1.1670 ns         1 6AW      -0.167900
     11 C03          1.1580    -0.0120    -2.4360 c3         1 6AW       0.025700
     12 C02          0.7950     1.4240    -2.8220 c3         1 6AW      -0.044400
     13 C01         -0.1830     1.9960    -1.7940 c3         1 6AW      -0.012100
     14 C04          2.0360    -0.6270    -3.5270 c3         1 6AW      -0.046400
     15 C05          2.2970    -2.1000    -3.2040 c3         1 6AW      -0.045400
     16 C06          3.1740    -2.7150    -4.2940 c3         1 6AW       0.015700
     17 C07          3.3320    -4.2150    -4.0370 c3         1 6AW      -0.042400
     18 C08          4.1040    -4.8520    -5.1940 c3         1 6AW      -0.014100
     19 N09          4.4920    -2.0760    -4.2790 ns         1 6AW      -0.183900
     20 C10          5.2460    -2.0570    -5.3970 c          1 6AW       0.582100
     21 O11          4.8320    -2.5690    -6.4150 o          1 6AW      -0.649100
     22 C12          6.6010    -1.4000    -5.3810 c3         1 6AW      -0.044300
     23 C13          6.4480     0.0780    -5.0150 c3         1 6AW       0.203400
     24 O14          5.5240     0.6980    -5.9120 oh         1 6AW      -0.593800
     25 N15          7.2150    -1.5120    -6.7070 ns         1 6AW      -0.194900
     26 C16          8.5550    -1.4740    -6.8350 c          1 6AW       0.591100
     27 O17          9.2570    -1.3460    -5.8490 o          1 6AW      -0.706100
     28 N18          9.1190    -1.5780    -8.0540 n          1 6AW      -0.174800
     29 C19          8.2750    -1.7320    -9.2410 c3         1 6AW       0.076300
     30 C20         10.5770    -1.5360    -8.1930 c3         1 6AW       0.048700
     31 C21         11.1310    -2.9350    -8.0960 cc         1 6AW       0.300600
     32 N28         11.3990    -3.5170    -6.9450 nc         1 6AW      -0.519000
     33 C24         11.8700    -4.7170    -6.9880 cd         1 6AW       0.437700
     34 C25         12.2370    -5.5440    -5.7820 c3         1 6AW      -0.064000
     35 C27         11.3970    -6.8230    -5.7660 c3         1 6AW       0.000900
     36 C26         13.7210    -5.9090    -5.8470 c3         1 6AW       0.000900
     37 S23         12.0170    -5.2350    -8.6110 ss         1 6AW      -0.316300
     38 C22         11.3840    -3.6880    -9.1710 cd         1 6AW      -0.117400
     39 H1           0.4710     0.8850     2.4090 h1         1 6AW       0.021700
     40 H2           0.4700    -0.8840     2.4090 h1         1 6AW       0.021700
     41 H3           4.1090    -0.7840     6.3160 h5         1 6AW       0.025100
     42 H4           2.2580     2.0900     3.8890 h4         1 6AW       0.004100
     43 H5           2.8900     0.0330    -1.1660 hn         1 6AW       0.174500
     44 H6           0.2530    -0.5970    -2.3280 h1         1 6AW       0.063700
     45 H7           0.3330     1.4280    -3.8010 hc         1 6AW       0.016700
     46 H8           1.6920     2.0300    -2.8430 hc         1 6AW       0.016700
     47 H9           0.3500     2.2280    -0.8790 hc         1 6AW       0.014033
     48 H10         -0.9570     1.2670    -1.5870 hc         1 6AW       0.014033
     49 H11         -0.6330     2.8990    -2.1880 hc         1 6AW       0.014033
     50 H12          2.9790    -0.0960    -3.5750 hc         1 6AW       0.029700
     51 H13          1.5310    -0.5520    -4.4830 hc         1 6AW       0.029700
     52 H14          2.8020    -2.1750    -2.2480 hc         1 6AW       0.026700
     53 H15          1.3540    -2.6310    -3.1560 hc         1 6AW       0.026700
     54 H16          2.7090    -2.5610    -5.2610 h1         1 6AW       0.064700
     55 H17          3.8770    -4.3670    -3.1130 hc         1 6AW       0.016200
     56 H18          2.3540    -4.6730    -3.9600 hc         1 6AW       0.016200
     57 H19          3.9810    -5.9280    -5.1610 hc         1 6AW       0.013700
     58 H20          3.7220    -4.4740    -6.1350 hc         1 6AW       0.013700
     59 H21          5.1550    -4.6060    -5.1060 hc         1 6AW       0.013700
     60 H22          4.8550    -1.6970    -3.4260 hn         1 6AW       0.173500
     61 H23          7.2320    -1.8900    -4.6480 h1         1 6AW       0.073700
     62 H24          6.0770     0.1620    -4.0000 h1         1 6AW       0.000700
     63 H25          7.4100     0.5700    -5.0890 h1         1 6AW       0.000700
     64 H26          5.5890     1.6350    -5.8320 ho         1 6AW       0.395000
     65 H27          6.6380    -1.6090    -7.5190 hn         1 6AW       0.204500
     66 H28          7.6960    -2.6440    -9.1570 h1         1 6AW       0.009700
     67 H29          7.6040    -0.8850    -9.3210 h1         1 6AW       0.009700
     68 H30          8.9000    -1.7820   -10.1250 h1         1 6AW       0.009700
     69 H31         10.8360    -1.1110    -9.1550 h1         1 6AW       0.038700
     70 H32         10.9980    -0.9260    -7.4030 h1         1 6AW       0.038700
     71 H33         12.0440    -4.9740    -4.8820 hc         1 6AW       0.050700
     72 H34         11.6110    -7.3840    -4.8640 hc         1 6AW       0.009367
     73 H35         10.3450    -6.5640    -5.7900 hc         1 6AW       0.009367
     74 H36         11.6400    -7.4260    -6.6320 hc         1 6AW       0.009367
     75 H37         14.3120    -5.0040    -5.9220 hc         1 6AW       0.009367
     76 H38         13.9030    -6.5320    -6.7140 hc         1 6AW       0.009367
     77 H39         13.9990    -6.4490    -4.9500 hc         1 6AW       0.009367
     78 H40         11.2320    -3.3980   -10.2030 h4         1 6AW       0.157000
@<TRIPOS>BOND
     1     1     2 2   
     2     2     3 1   
     3     2    10 1   
     4     3     4 1   
     5     4     5 1   
     6     4    39 1   
     7     4    40 1   
     8     5     6 1   
     9     5     9 2   
    10     6     7 1   
    11     7     8 2   
    12     7    41 1   
    13     8     9 1   
    14     9    42 1   
    15    10    11 1   
    16    10    43 1   
    17    11    12 1   
    18    11    14 1   
    19    11    44 1   
    20    12    13 1   
    21    12    45 1   
    22    12    46 1   
    23    13    47 1   
    24    13    48 1   
    25    13    49 1   
    26    14    15 1   
    27    14    50 1   
    28    14    51 1   
    29    15    16 1   
    30    15    52 1   
    31    15    53 1   
    32    16    17 1   
    33    16    19 1   
    34    16    54 1   
    35    17    18 1   
    36    17    55 1   
    37    17    56 1   
    38    18    57 1   
    39    18    58 1   
    40    18    59 1   
    41    19    20 1   
    42    19    60 1   
    43    20    21 2   
    44    20    22 1   
    45    22    23 1   
    46    22    25 1   
    47    22    61 1   
    48    23    24 1   
    49    23    62 1   
    50    23    63 1   
    51    24    64 1   
    52    25    26 1   
    53    25    65 1   
    54    26    27 2   
    55    26    28 1   
    56    28    29 1   
    57    28    30 1   
    58    29    66 1   
    59    29    67 1   
    60    29    68 1   
    61    30    31 1   
    62    30    69 1   
    63    30    70 1   
    64    31    32 1   
    65    31    38 2   
    66    32    33 2   
    67    33    34 1   
    68    33    37 1   
    69    34    35 1   
    70    34    36 1   
    71    34    71 1   
    72    35    72 1   
    73    35    73 1   
    74    35    74 1   
    75    36    75 1   
    76    36    76 1   
    77    36    77 1   
    78    37    38 1   
    79    38    78 1   
@<TRIPOS>SUBSTRUCTURE
     1 6AW         1 TEMP              0 ****  ****    0 ROOT
