@<TRIPOS>MOLECULE
molecule
   31    33     1     0     0
SMALL
bcc


@<TRIPOS>ATOM
      1 C10          0.0000     0.0000     0.0000 ca         1 6AY      -0.103000
      2 C11          1.3820     0.0000     0.0000 ca         1 6AY      -0.125000
      3 C12          2.0730     0.0000     1.2000 ca         1 6AY       0.036400
      4 C14          1.3790    -0.0020     2.3960 ca         1 6AY      -0.125000
      5 C15         -0.0030    -0.0020     2.3940 ca         1 6AY      -0.103000
      6 C17         -6.2230    -0.8700     1.2010 ca         1 6AY       0.762900
      7 C19         -5.9290    -3.1520     1.1890 ca         1 6AY       0.533800
      8 N02         -6.1320    -4.4990     1.1820 na         1 6AY      -0.026800
      9 N03         -4.8820    -5.1310     1.1780 nc         1 6AY      -0.508100
     10 C04         -3.9360    -4.2350     1.1840 cd         1 6AY       0.401800
     11 C05         -4.5340    -2.9550     1.1910 ca         1 6AY      -0.556500
     12 C06         -4.0460    -1.6350     1.1920 ca         1 6AY       0.791200
     13 N07         -2.6880    -1.3830     1.1940 nu         1 6AY      -0.897900
     14 C09         -0.6920    -0.0010     1.1970 ca         1 6AY      -0.123300
     15 Cl           3.8090    -0.0000     1.2000 cl         1 6AY      -0.103400
     16 N16         -4.9230    -0.6380     1.2020 nb         1 6AY      -0.852000
     17 N18         -6.7270    -2.0850     1.1940 nb         1 6AY      -0.811000
     18 H1          -0.5410     0.0000    -0.9380 ha         1 6AY       0.143000
     19 H2           1.9250     0.0010    -0.9380 ha         1 6AY       0.148000
     20 H3           1.9200    -0.0020     3.3350 ha         1 6AY       0.148000
     21 H4          -0.5460    -0.0030     3.3310 ha         1 6AY       0.143000
     22 H5          -6.9020    -0.0260     1.2090 h5         1 6AY       0.060100
     23 H6          -7.9900    -4.8880     2.0610 h1         1 6AY       0.056700
     24 H7          -7.2860    -6.2440     1.1710 h1         1 6AY       0.056700
     25 H8          -7.9870    -4.8790     0.2920 h1         1 6AY       0.056700
     26 H9          -2.8720    -4.4370     1.1840 h4         1 6AY       0.053800
     27 H10         -2.0380    -2.1430     1.1940 hn         1 6AY       0.452800
     28 H11         -2.5610     0.5080     2.0810 h1         1 6AY       0.062700
     29 H12         -2.5600     0.5110     0.3110 h1         1 6AY       0.062700
     30 C08         -2.2000    -0.0010     1.1960 c3         1 6AY       0.287100
     31 C01         -7.4340    -5.1710     1.1760 c3         1 6AY       0.075600
@<TRIPOS>BOND
     1    31     8 1   
     2     8     9 1   
     3     8     7 1   
     4     9    10 2   
     5     7    17 ar  
     6     7    11 ar  
     7    17     6 ar  
     8    10    11 1   
     9    11    12 ar  
    10     6    16 ar  
    11    12    16 ar  
    12    12    13 1   
    13    13    30 1   
    14     1     2 ar  
    15     1    14 ar  
    16     2     3 ar  
    17    30    14 1   
    18    14     5 ar  
    19     3    15 1   
    20     3     4 ar  
    21     5     4 ar  
    22     1    18 1   
    23     2    19 1   
    24     4    20 1   
    25     5    21 1   
    26     6    22 1   
    27    31    23 1   
    28    31    24 1   
    29    31    25 1   
    30    10    26 1   
    31    13    27 1   
    32    30    28 1   
    33    30    29 1   
@<TRIPOS>SUBSTRUCTURE
     1 6AY         1 TEMP              0 ****  ****    0 ROOT
