@<TRIPOS>MOLECULE
6AY
   31    33     1     0     0
SMALL
bcc


@<TRIPOS>ATOM
      1 C10          0.0000     0.0000     0.0000 ca         1 6AY      -0.073000
      2 C11          1.3820     0.0000     0.0000 ca         1 6AY      -0.100000
      3 C12          2.0730     0.0000     1.2000 ca         1 6AY      -0.027600
      4 C14          1.3790    -0.0020     2.3960 ca         1 6AY      -0.100000
      5 C15         -0.0030    -0.0020     2.3940 ca         1 6AY      -0.073000
      6 C17         -6.2230    -0.8700     1.2010 ca         1 6AY       0.718900
      7 C19         -5.9290    -3.1520     1.1890 ca         1 6AY       0.346800
      8 N02         -6.1320    -4.4990     1.1820 na         1 6AY       0.383200
      9 N03         -4.8820    -5.1310     1.1780 nc         1 6AY      -0.644100
     10 C04         -3.9360    -4.2350     1.1840 cd         1 6AY       0.469800
     11 C05         -4.5340    -2.9550     1.1910 ca         1 6AY      -0.576500
     12 C06         -4.0460    -1.6350     1.1920 ca         1 6AY       0.622200
     13 N07         -2.6880    -1.3830     1.1940 nu         1 6AY      -0.477900
     14 C09         -0.6920    -0.0010     1.1970 ca         1 6AY      -0.130300
     15 Cl           3.8090    -0.0000     1.2000 cl         1 6AY      -0.019400
     16 N16         -4.9230    -0.6380     1.2020 nb         1 6AY      -0.764000
     17 N18         -6.7270    -2.0850     1.1940 nb         1 6AY      -0.705000
     18 H1          -0.5410     0.0000    -0.9380 ha         1 6AY       0.112000
     19 H2           1.9250     0.0010    -0.9380 ha         1 6AY       0.117500
     20 H3           1.9200    -0.0020     3.3350 ha         1 6AY       0.117500
     21 H4          -0.5460    -0.0030     3.3310 ha         1 6AY       0.112000
     22 H5          -6.9020    -0.0260     1.2090 h5         1 6AY      -0.005900
     23 H6          -7.9900    -4.8880     2.0610 h1         1 6AY       0.022033
     24 H7          -7.2860    -6.2440     1.1710 h1         1 6AY       0.022033
     25 H8          -7.9870    -4.8790     0.2920 h1         1 6AY       0.022033
     26 H9          -2.8720    -4.4370     1.1840 h4         1 6AY       0.007800
     27 H10         -2.0380    -2.1430     1.1940 hn         1 6AY       0.299800
     28 H11         -2.5610     0.5080     2.0810 h1         1 6AY       0.032700
     29 H12         -2.5600     0.5110     0.3110 h1         1 6AY       0.032700
     30 C08         -2.2000    -0.0010     1.1960 c3         1 6AY       0.223100
     31 C01         -7.4340    -5.1710     1.1760 c3         1 6AY       0.033600
@<TRIPOS>BOND
     1     1     2 ar  
     2     1    14 ar  
     3     1    18 1   
     4     2     3 ar  
     5     2    19 1   
     6     3     4 ar  
     7     3    15 1   
     8     4     5 ar  
     9     4    20 1   
    10     5    14 ar  
    11     5    21 1   
    12     6    16 ar  
    13     6    17 ar  
    14     6    22 1   
    15     7     8 1   
    16     7    11 ar  
    17     7    17 ar  
    18     8     9 1   
    19     8    31 1   
    20     9    10 2   
    21    10    11 1   
    22    10    26 1   
    23    11    12 ar  
    24    12    13 1   
    25    12    16 ar  
    26    13    27 1   
    27    13    30 1   
    28    14    30 1   
    29    23    31 1   
    30    24    31 1   
    31    25    31 1   
    32    28    30 1   
    33    29    30 1   
@<TRIPOS>SUBSTRUCTURE
     1 6AY         1 TEMP              0 ****  ****    0 ROOT
