@<TRIPOS>MOLECULE
6AZ
   34    31     1     0     0
SMALL
bcc


@<TRIPOS>ATOM
      1 O3P      -378.0200 -515.3860  476.3270 o         1 6AZ     -1.157000
      2 P        -377.1640 -516.4160  476.9670 p3        1 6AZ      2.423000
      3 O1P      -376.9710 -516.4620  478.4280 o         1 6AZ     -1.157000
      4 O2P      -376.7190 -517.5270  476.0880 o         1 6AZ     -1.157000
      5 O5'      -375.5360 -515.3380  476.1640 o         1 6AZ     -0.355000
      6 C5'      -375.7730 -515.3470  474.9480 c2        1 6AZ      0.200000
      7 C4'       111.0580  132.0410  -98.5700 c2        1 6AZ     -0.347000
      8 C3'       110.3090  130.9420  -98.4390 c2        1 6AZ     -0.007000
      9 O3'       109.3180  130.5530  -99.3050 oh        1 6AZ     -0.267000
     10 C2'       125.6040  174.3060 -172.3330 c2        1 6AZ     -0.337000
     11 O2'       126.4090  173.8450 -173.3640 oh        1 6AZ     -0.287000
     12 O4'       126.9630  173.3870 -170.6090 o         1 6AZ     -0.530000
     13 C1'       125.9340  174.0020 -171.0340 c2        1 6AZ      0.216000
     14 N1        124.9700  174.4230 -169.9820 n         1 6AZ     -0.269000
     15 C6        124.2600  173.4780 -169.2380 c2        1 6AZ      0.242000
     16 C5        123.4940  173.8550 -168.1380 c2        1 6AZ     -0.388000
     17 C4        123.4370  175.2360 -167.7090 c2        1 6AZ      0.367000
     18 O4        122.7840  175.6570 -166.7270 o         1 6AZ     -0.417000
     19 N3        124.1730  176.1570 -168.4660 n         1 6AZ     -0.382000
     20 C2        124.9570  175.7770 -169.5760 c2        1 6AZ      0.400000
     21 O2        125.5900  176.6740 -170.1760 o         1 6AZ     -0.377000
     22 N7        124.1980  172.0930 -169.5520 n2        1 6AZ     -0.259000
     23 H5'       111.8340  132.2930  -97.8400 ha        1 6AZ      0.124500
     24 H5'A      110.9430  132.7440  -99.4030 ha        1 6AZ      0.124500
     25 H4'      -376.6730 -515.8450  474.5250 h4        1 6AZ      0.101500
     26 H3'      -375.0720 -514.8450  474.2460 h4        1 6AZ      0.101500
     27 HO3'      109.2540  131.2020 -100.0210 ho        1 6AZ      0.211000
     28 H2'       110.3850  130.2050  -97.6220 h4        1 6AZ      0.161000
     29 HO2'      127.3220  173.9050 -173.0450 ho        1 6AZ      0.188000
     30 H1'       124.7600  174.8930 -172.6850 h4        1 6AZ      0.138000
     31 H5        122.9100  173.1350 -167.5540 ha        1 6AZ      0.165000
     32 HN3       124.1870  177.1170 -168.2080 hn        1 6AZ      0.243000
     33 N8        124.8880  171.5180 -170.4450 n2        1 6AZ      0.265000
     34 N9        125.3930  170.8100 -171.1640 n1        1 6AZ      0.023000
@<TRIPOS>BOND
     1    1    2 1
     2    2    3 1
     3    2    4 1
     4    5    6 1
     5    6   25 1
     6    6   26 1
     7    7    8 1
     8    7   23 1
     9    7   24 1
    10    8    9 1
    11    8   28 1
    12    9   27 1
    13   10   11 1
    14   10   13 1
    15   10   30 1
    16   11   29 1
    17   12   13 1
    18   13   14 1
    19   14   15 1
    20   14   20 1
    21   15   16 1
    22   15   22 1
    23   16   17 1
    24   16   31 1
    25   17   18 1
    26   17   19 1
    27   19   20 1
    28   19   32 1
    29   20   21 1
    30   22   33 1
    31   33   34 1
@<TRIPOS>SUBSTRUCTURE
     1 6AZ         1 TEMP              0 ****  ****    0 ROOT
