@<TRIPOS>MOLECULE
molecule
   16    16     1     0     0
SMALL
bcc


@<TRIPOS>ATOM
      1 O01          0.0000     0.0000     0.0000 oh         1 6B0      -0.613800
      2 C02          1.4290     0.0000     0.0000 c3         1 6B0       0.187700
      3 C03          1.9310     0.0000     1.4210 ca         1 6B0      -0.072300
      4 C04          1.0340     0.0010     2.4710 ca         1 6B0      -0.093000
      5 C05          1.4930    -0.0000     3.7750 ca         1 6B0      -0.122000
      6 C06          2.8520    -0.0000     4.0300 ca         1 6B0      -0.115000
      7 C07          3.7530     0.0000     2.9790 ca         1 6B0       0.030400
      8 Cl1          5.4580     0.0000     3.2980 cl         1 6B0      -0.087400
      9 C09          3.2920    -0.0050     1.6740 ca         1 6B0       0.028400
     10 Cl2          4.4210    -0.0050     0.3540 cl         1 6B0      -0.092400
     11 H1          -0.3140    -0.0000    -0.8890 ho         1 6B0       0.410000
     12 H2           1.7900    -0.8850    -0.5110 h1         1 6B0       0.042700
     13 H3           1.7900     0.8850    -0.5110 h1         1 6B0       0.042700
     14 H4          -0.0310     0.0000     2.2720 ha         1 6B0       0.163000
     15 H5           0.7880    -0.0000     4.5970 ha         1 6B0       0.142000
     16 H6           3.2120    -0.0010     5.0520 ha         1 6B0       0.149000
@<TRIPOS>BOND
     1    10     9 1
     2     8     7 1
     3     9     7 ar
     4     9     3 ar
     5     7     6 ar
     6     1     2 1
     7     2     3 1
     8     3     4 ar
     9     6     5 ar
    10     4     5 ar
    11     1    11 1
    12     2    12 1
    13     2    13 1
    14     4    14 1
    15     5    15 1
    16     6    16 1
@<TRIPOS>SUBSTRUCTURE
     1 6B0         1 TEMP              0 ****  ****    0 ROOT
