@<TRIPOS>MOLECULE
molecule
   19    20     1     0     0
SMALL
bcc


@<TRIPOS>ATOM
      1 C12          0.0000     0.0000     0.0000 ca         1 6B1       0.042400
      2 C11          1.3790     0.0000     0.0000 ca         1 6B1      -0.113000
      3 C10          2.0700     0.0000     1.2040 ca         1 6B1      -0.089200
      4 Cl2         -0.8630    -0.0070    -1.5070 cl         1 6B1      -0.084400
      5 C02         -0.7040     0.0000     1.1980 ca         1 6B1       0.012400
      6 Cl1         -2.4390    -0.0000     1.1790 cl         1 6B1      -0.085400
      7 C04          1.3640     0.0000     2.4180 ca         1 6B1       0.102400
      8 C03         -0.0340    -0.0000     2.4020 ca         1 6B1      -0.057000
      9 N09          3.4100     0.0020     1.5420 na         1 6B1      -0.242300
     10 C06          3.4830     0.0020     2.9010 cc         1 6B1       0.435800
     11 N05          2.2870     0.0010     3.4140 nd         1 6B1      -0.604100
     12 C07          4.7640     0.0020     3.6960 c3         1 6B1       0.138100
     13 O08          5.8790     0.0020     2.8020 oh         1 6B1      -0.624800
     14 H1           1.9210     0.0700    -0.9360 ha         1 6B1       0.148000
     15 H2          -0.5880    -0.0000     3.3330 ha         1 6B1       0.162000
     16 H3           4.1820     0.0020     0.9060 hn         1 6B1       0.321700
     17 H5           4.8010     0.8870     4.3200 h1         1 6B1       0.057700
     18 H6           4.8010    -0.8820     4.3210 h1         1 6B1       0.057700
     19 H7           6.6800     0.0020     3.2990 ho         1 6B1       0.422000
@<TRIPOS>BOND
     1     4     1 1   
     2     1     2 ar  
     3     1     5 ar  
     4     2     3 ar  
     5     6     5 1   
     6     5     8 ar  
     7     3     9 1   
     8     3     7 ar  
     9     9    10 1   
    10     8     7 ar  
    11     7    11 1   
    12    10    11 2   
    13    10    12 1   
    14    12    13 1   
    15     2    14 1   
    16     8    15 1   
    17     9    16 1   
    18    12    17 1   
    19    12    18 1   
    20    13    19 1   
@<TRIPOS>SUBSTRUCTURE
     1 6B1         1 TEMP              0 ****  ****    0 ROOT
