@<TRIPOS>MOLECULE
molecule
   65    68     1     0     0
SMALL
bcc


@<TRIPOS>ATOM
      1 CAK          0.0000     0.0000     0.0000 c3         1 6B2      -0.057900
      2 CAJ          1.5070     0.0000     0.0000 cc         1 6B2       0.007600
      3 CAI          2.2010     0.0000     1.1670 cd         1 6B2      -0.241200
      4 CAH          3.6110     0.0000     1.1550 c          1 6B2       0.699700
      5 OAL          4.2130    -0.0000     2.2150 o          1 6B2      -0.649500
      6 NAG          4.3070     0.0010     0.0050 n          1 6B2      -0.336000
      7 CAM          5.7720     0.0020     0.0470 c3         1 6B2       0.077300
      8 CAD          3.6630     0.0000    -1.2140 ca         1 6B2       0.104600
      9 CAC          4.3820    -0.0000    -2.4020 ca         1 6B2      -0.165000
     10 CAE          2.2550    -0.0050    -1.2570 ca         1 6B2      -0.126800
     11 CAF          1.5930    -0.0070    -2.4920 ca         1 6B2      -0.065000
     12 CAA          2.3140    -0.0030    -3.6490 ca         1 6B2      -0.165000
     13 CAB          3.7090    -0.0010    -3.6130 ca         1 6B2       0.101600
     14 NAN          4.4320    -0.0010    -4.8060 n          1 6B2      -0.395000
     15 CAO          5.1700     1.0730    -5.0910 c          1 6B2       0.694500
     16 OAT          5.1410     2.0090    -4.3210 o          1 6B2      -0.625500
     17 CAP          6.0320     1.1860    -6.3150 c3         1 6B2      -0.146400
     18 CAQ          5.6110     0.1390    -7.3480 c3         1 6B2      -0.108400
     19 CAR          5.5060    -1.2210    -6.6460 c3         1 6B2       0.242500
     20 NBA          5.2750    -2.2720    -7.6400 n7         1 6B2      -0.907100
     21 SBC          6.5520    -3.1310    -8.2500 s6         1 6B2       1.329900
     22 OBE          5.9600    -4.0230    -9.1840 o          1 6B2      -0.627300
     23 OBF          7.4750    -2.1360    -8.6710 o          1 6B2      -0.627300
     24 CBD          7.2060    -4.0430    -6.8240 c3         1 6B2      -0.218600
     25 CBG          8.4050    -4.8860    -7.2650 c3         1 6B2      -0.056700
     26 CBI          9.0330    -5.5570    -6.0420 c3         1 6B2      -0.093100
     27 CBH          7.9400    -5.9580    -8.2520 c3         1 6B2      -0.093100
     28 CAS          4.3400    -1.1790    -5.6610 c3         1 6B2       0.161000
     29 CAU          4.3610    -2.4230    -4.8100 ca         1 6B2      -0.112300
     30 CAV          3.4030    -3.4020    -4.9950 ca         1 6B2      -0.105000
     31 CAW          3.4220    -4.5430    -4.2150 ca         1 6B2      -0.120000
     32 CAX          4.3990    -4.7040    -3.2490 ca         1 6B2       0.036400
     33 Cl           4.4230    -6.1370    -2.2690 cl         1 6B2      -0.097400
     34 CAY          5.3570    -3.7230    -3.0640 ca         1 6B2      -0.120000
     35 CAZ          5.3410    -2.5850    -3.8490 ca         1 6B2      -0.105000
     36 H1          -0.3610     0.0100     1.0210 hc         1 6B2       0.052033
     37 H2          -0.3610     0.8800    -0.5190 hc         1 6B2       0.052033
     38 H3          -0.3610    -0.8890    -0.5020 hc         1 6B2       0.052033
     39 H4           1.6690    -0.0030     2.1110 ha         1 6B2       0.165000
     40 H5           6.1450    -0.9280    -0.3650 h1         1 6B2       0.058033
     41 H6           6.1490     0.8330    -0.5360 h1         1 6B2       0.058033
     42 H7           6.1030     0.1010     1.0740 h1         1 6B2       0.058033
     43 H8           5.4650     0.0010    -2.3810 ha         1 6B2       0.147000
     44 H9           0.5100    -0.0090    -2.5270 ha         1 6B2       0.140000
     45 H10          1.8000    -0.0030    -4.6020 ha         1 6B2       0.136000
     46 H11          5.9200     2.1750    -6.7420 hc         1 6B2       0.083700
     47 H12          7.0670     1.0220    -6.0410 hc         1 6B2       0.083700
     48 H13          4.6480     0.4070    -7.7660 hc         1 6B2       0.072200
     49 H14          6.3540     0.0850    -8.1350 hc         1 6B2       0.072200
     50 H15          6.4250    -1.4200    -6.1080 h1         1 6B2       0.064700
     51 H16          4.3490    -2.4480    -7.9750 hn         1 6B2       0.456800
     52 H17          6.4350    -4.6910    -6.4260 h1         1 6B2       0.098200
     53 H18          7.5180    -3.3420    -6.0600 h1         1 6B2       0.098200
     54 H19          9.1380    -4.2480    -7.7430 hc         1 6B2       0.061700
     55 H20          8.3080    -6.2160    -5.5800 hc         1 6B2       0.043533
     56 H21          9.8980    -6.1310    -6.3490 hc         1 6B2       0.043533
     57 H22          9.3370    -4.7990    -5.3300 hc         1 6B2       0.043533
     58 H23          6.9220    -6.2450    -8.0210 hc         1 6B2       0.043533
     59 H24          8.5860    -6.8240    -8.1750 hc         1 6B2       0.043533
     60 H25          7.9850    -5.5640    -9.2600 hc         1 6B2       0.043533
     61 H26          3.4100    -1.1390    -6.2160 h1         1 6B2       0.063700
     62 H27          2.6380    -3.2760    -5.7510 ha         1 6B2       0.139000
     63 H28          2.6710    -5.3110    -4.3590 ha         1 6B2       0.149500
     64 H29          6.1240    -3.8500    -2.3100 ha         1 6B2       0.149500
     65 H30          6.0910    -1.8170    -3.7050 ha         1 6B2       0.139000
@<TRIPOS>BOND
     1    27    25 1   
     2    26    25 1   
     3    25    24 1   
     4    24    21 1   
     5    22    21 2   
     6    21    23 2   
     7    21    20 1   
     8    20    19 1   
     9    18    19 1   
    10    18    17 1   
    11    19    28 1   
    12    17    15 1   
    13    28    29 1   
    14    28    14 1   
    15    15    14 1   
    16    15    16 2   
    17    29    30 ar  
    18    29    35 ar  
    19    30    31 ar  
    20    35    34 ar  
    21    31    32 ar  
    22    14    13 1   
    23    34    32 ar  
    24    32    33 1   
    25    13     9 ar  
    26    13    12 ar  
    27     9     8 ar  
    28    12    11 ar  
    29     7     6 1   
    30     8     6 1   
    31     8    10 ar  
    32    11    10 ar  
    33     6     4 1   
    34    10     2 1   
    35     4     5 2   
    36     4     3 1   
    37     2     3 2   
    38     2     1 1   
    39     1    36 1   
    40     1    37 1   
    41     1    38 1   
    42     3    39 1   
    43     7    40 1   
    44     7    41 1   
    45     7    42 1   
    46     9    43 1   
    47    11    44 1   
    48    12    45 1   
    49    17    46 1   
    50    17    47 1   
    51    18    48 1   
    52    18    49 1   
    53    19    50 1   
    54    20    51 1   
    55    24    52 1   
    56    24    53 1   
    57    25    54 1   
    58    26    55 1   
    59    26    56 1   
    60    26    57 1   
    61    27    58 1   
    62    27    59 1   
    63    27    60 1   
    64    28    61 1   
    65    30    62 1   
    66    31    63 1   
    67    34    64 1   
    68    35    65 1   
@<TRIPOS>SUBSTRUCTURE
     1 6B2         1 TEMP              0 ****  ****    0 ROOT
