@<TRIPOS>MOLECULE
molecule
   50    54     1     0     0
SMALL
bcc


@<TRIPOS>ATOM
      1 C15          0.0000     0.0000     0.0000 ca         1 6B3       0.034000
      2 C14          7.7830    -0.7580     0.9520 ca         1 6B3      -0.066600
      3 C13          6.3110    -0.6740     0.9990 c          1 6B3       0.695700
      4 C17          0.1220     0.0010     2.4780 c          1 6B3       0.716100
      5 C18          8.4880    -0.1420    -0.0830 ca         1 6B3      -0.113000
      6 C12          6.8840    -3.1840     2.7950 ca         1 6B3      -0.044600
      7 C9           7.7510    -2.1090     3.0590 cp         1 6B3      -0.039000
      8 C7          -2.0650     0.0080     1.2690 ca         1 6B3      -0.059000
      9 C6           2.1860    -0.0000    -1.2000 ca         1 6B3      -0.066000
     10 C5           1.4750     0.0000     0.0000 ca         1 6B3      -0.131000
     11 C2           4.2460    -0.0010     0.0310 ca         1 6B3       0.133600
     12 C4           2.1590     0.0000     1.2250 ca         1 6B3       0.104600
     13 C3           3.5490    -0.0010     1.2290 ca         1 6B3      -0.183000
     14 C1           3.5620    -0.0010    -1.1830 ca         1 6B3      -0.192000
     15 C21          9.8750    -1.5250     1.8960 ca         1 6B3      -0.133000
     16 C26          7.9150    -1.6620     4.3690 ca         1 6B3      -0.141000
     17 C25          7.2290    -2.2760     5.3980 ca         1 6B3      -0.161000
     18 C24          6.3740    -3.3350     5.1390 ca         1 6B3      -0.152000
     19 C23          6.1990    -3.7900     3.8480 ca         1 6B3      -0.095000
     20 C22          8.4850    -1.4540     1.9530 cp         1 6B3       0.091000
     21 N9           1.4670     0.0010     2.4250 ns         1 6B3      -0.431100
     22 C16         -0.6710     0.0070     1.2410 ca         1 6B3      -0.155600
     23 C8          -2.7710     0.0020     0.0860 ca         1 6B3      -0.165000
     24 C10         -0.7310    -0.0000    -1.1830 ca         1 6B3      -0.145000
     25 C11         -2.1100     0.0010    -1.1340 ca         1 6B3      -0.102000
     26 O9          -0.4390     0.0070     3.5570 o          1 6B3      -0.656500
     27 N12          5.6420    -0.0010     0.0410 ns         1 6B3      -0.482100
     28 C19          9.8650    -0.2240    -0.1210 ca         1 6B3      -0.155000
     29 C20         10.5550    -0.9140     0.8620 ca         1 6B3      -0.118000
     30 O29          5.6990    -1.2120     1.9020 o          1 6B3      -0.564100
     31 O35          7.2920    -3.1320     0.4980 o          1 6B3      -0.836300
     32 O30          5.8570    -4.6900     1.1640 o          1 6B3      -0.836300
     33 H1           7.9560     0.3990    -0.8550 ha         1 6B3       0.106000
     34 H2          -2.5910     0.0080     2.2160 ha         1 6B3       0.150000
     35 H3           1.6560    -0.0000    -2.1450 ha         1 6B3       0.128000
     36 H4           4.0880    -0.0010     2.1680 ha         1 6B3       0.178000
     37 H5           4.1140    -0.0020    -2.1150 ha         1 6B3       0.134000
     38 H6          10.4230    -2.0610     2.6610 ha         1 6B3       0.130000
     39 H7           8.5810    -0.8340     4.5800 ha         1 6B3       0.106000
     40 H8           7.3590    -1.9260     6.4150 ha         1 6B3       0.101000
     41 H9           5.8410    -3.8090     5.9540 ha         1 6B3       0.105000
     42 H10          5.5290    -4.6190     3.6530 ha         1 6B3       0.156000
     43 H11          1.9840     0.0020     3.2820 hn         1 6B3       0.344500
     44 H12         -3.8550     0.0030     0.1080 ha         1 6B3       0.125000
     45 H13         -0.2200    -0.0010    -2.1380 ha         1 6B3       0.134000
     46 H14         -2.6800    -0.0040    -2.0540 ha         1 6B3       0.123000
     47 H15          6.1470     0.5210    -0.6480 hn         1 6B3       0.320500
     48 H16         10.4100     0.2540    -0.9270 ha         1 6B3       0.110000
     49 H17         11.6360    -0.9710     0.8210 ha         1 6B3       0.111000
     50 C28          6.6940    -3.6630     1.4130 c          1 6B3       0.887200
@<TRIPOS>BOND
     1    29    15 ar
     2    29    28 ar
     3    15    20 ar
     4    28     5 ar
     5    16    17 ar
     6    16     7 ar
     7    17    18 ar
     8    20     7 1
     9    20     2 ar
    10     7     6 ar
    11     5     2 ar
    12    18    19 ar
    13     2     3 1
    14     6    19 ar
    15     6    50 1
    16    31    50 1
    17    30     3 2
    18     3    27 1
    19    50    32 1
    20    27    11 1
    21    13    11 ar
    22    13    12 ar
    23    11    14 ar
    24    21    12 1
    25    21     4 1
    26    12    10 ar
    27    14     9 ar
    28    26     4 2
    29     4    22 1
    30    10     9 ar
    31    10     1 1
    32    22     1 ar
    33    22     8 ar
    34     1    24 ar
    35     8    23 ar
    36    24    25 ar
    37    23    25 ar
    38     5    33 1
    39     8    34 1
    40     9    35 1
    41    13    36 1
    42    14    37 1
    43    15    38 1
    44    16    39 1
    45    17    40 1
    46    18    41 1
    47    19    42 1
    48    21    43 1
    49    23    44 1
    50    24    45 1
    51    25    46 1
    52    27    47 1
    53    28    48 1
    54    29    49 1
@<TRIPOS>SUBSTRUCTURE
     1 6B3         1 TEMP              0 ****  ****    0 ROOT
