@<TRIPOS>MOLECULE
6B3
   50    54     1     0     0
SMALL
bcc


@<TRIPOS>ATOM
      1 C15          0.0000     0.0000     0.0000 ca         1 6B3       0.039000
      2 C14          7.7830    -0.7580     0.9520 ca         1 6B3      -0.077600
      3 C13          6.3110    -0.6740     0.9990 c          1 6B3       0.612700
      4 C17          0.1220     0.0010     2.4780 c          1 6B3       0.618100
      5 C18          8.4880    -0.1420    -0.0830 ca         1 6B3      -0.094000
      6 C12          6.8840    -3.1840     2.7950 ca         1 6B3      -0.044600
      7 C9           7.7510    -2.1090     3.0590 cp         1 6B3      -0.031000
      8 C7          -2.0650     0.0080     1.2690 ca         1 6B3      -0.026000
      9 C6           2.1860    -0.0000    -1.2000 ca         1 6B3      -0.042000
     10 C5           1.4750     0.0000     0.0000 ca         1 6B3      -0.122000
     11 C2           4.2460    -0.0010     0.0310 ca         1 6B3      -0.006400
     12 C4           2.1590     0.0000     1.2250 ca         1 6B3      -0.050400
     13 C3           3.5490    -0.0010     1.2290 ca         1 6B3      -0.163000
     14 C1           3.5620    -0.0010    -1.1830 ca         1 6B3      -0.163000
     15 C21          9.8750    -1.5250     1.8960 ca         1 6B3      -0.115000
     16 C26          7.9150    -1.6620     4.3690 ca         1 6B3      -0.125000
     17 C25          7.2290    -2.2760     5.3980 ca         1 6B3      -0.140000
     18 C24          6.3740    -3.3350     5.1390 ca         1 6B3      -0.135000
     19 C23          6.1990    -3.7900     3.8480 ca         1 6B3      -0.066000
     20 C22          8.4850    -1.4540     1.9530 cp         1 6B3       0.110000
     21 N9           1.4670     0.0010     2.4250 ns         1 6B3       0.034900
     22 C16         -0.6710     0.0070     1.2410 ca         1 6B3      -0.162600
     23 C8          -2.7710     0.0020     0.0860 ca         1 6B3      -0.143000
     24 C10         -0.7310    -0.0000    -1.1830 ca         1 6B3      -0.126000
     25 C11         -2.1100     0.0010    -1.1340 ca         1 6B3      -0.075000
     26 O9          -0.4390     0.0070     3.5570 o          1 6B3      -0.703500
     27 N12          5.6420    -0.0010     0.0410 ns         1 6B3      -0.055100
     28 C19          9.8650    -0.2240    -0.1210 ca         1 6B3      -0.133000
     29 C20         10.5550    -0.9140     0.8620 ca         1 6B3      -0.093000
     30 O29          5.6990    -1.2120     1.9020 o          1 6B3      -0.607100
     31 O35          7.2920    -3.1320     0.4980 o          1 6B3      -0.889300
     32 O30          5.8570    -4.6900     1.1640 o          1 6B3      -0.889300
     33 H1           7.9560     0.3990    -0.8550 ha         1 6B3       0.085000
     34 H2          -2.5910     0.0080     2.2160 ha         1 6B3       0.121000
     35 H3           1.6560    -0.0000    -2.1450 ha         1 6B3       0.102000
     36 H4           4.0880    -0.0010     2.1680 ha         1 6B3       0.160000
     37 H5           4.1140    -0.0020    -2.1150 ha         1 6B3       0.109000
     38 H6          10.4230    -2.0610     2.6610 ha         1 6B3       0.103000
     39 H7           8.5810    -0.8340     4.5800 ha         1 6B3       0.085000
     40 H8           7.3590    -1.9260     6.4150 ha         1 6B3       0.080000
     41 H9           5.8410    -3.8090     5.9540 ha         1 6B3       0.082000
     42 H10          5.5290    -4.6190     3.6530 ha         1 6B3       0.129000
     43 H11          1.9840     0.0020     3.2820 hn         1 6B3       0.180500
     44 H12         -3.8550     0.0030     0.1080 ha         1 6B3       0.098000
     45 H13         -0.2200    -0.0010    -2.1380 ha         1 6B3       0.113000
     46 H14         -2.6800    -0.0040    -2.0540 ha         1 6B3       0.094000
     47 H15          6.1470     0.5210    -0.6480 hn         1 6B3       0.170500
     48 H16         10.4100     0.2540    -0.9270 ha         1 6B3       0.086000
     49 H17         11.6360    -0.9710     0.8210 ha         1 6B3       0.085000
     50 C28          6.6940    -3.6630     1.4130 c          1 6B3       0.981200
@<TRIPOS>BOND
     1     1    10 1   
     2     1    22 ar  
     3     1    24 ar  
     4     2     3 1   
     5     2     5 ar  
     6     2    20 ar  
     7     3    27 1   
     8     3    30 2   
     9     4    21 1   
    10     4    22 1   
    11     4    26 2   
    12     5    28 ar  
    13     5    33 1   
    14     6     7 ar  
    15     6    19 ar  
    16     6    50 1   
    17     7    16 ar  
    18     7    20 1   
    19     8    22 ar  
    20     8    23 ar  
    21     8    34 1   
    22     9    10 ar  
    23     9    14 ar  
    24     9    35 1   
    25    10    12 ar  
    26    11    13 ar  
    27    11    14 ar  
    28    11    27 1   
    29    12    13 ar  
    30    12    21 1   
    31    13    36 1   
    32    14    37 1   
    33    15    20 ar  
    34    15    29 ar  
    35    15    38 1   
    36    16    17 ar  
    37    16    39 1   
    38    17    18 ar  
    39    17    40 1   
    40    18    19 ar  
    41    18    41 1   
    42    19    42 1   
    43    21    43 1   
    44    23    25 ar  
    45    23    44 1   
    46    24    25 ar  
    47    24    45 1   
    48    25    46 1   
    49    27    47 1   
    50    28    29 ar  
    51    28    48 1   
    52    29    49 1   
    53    31    50 1   
    54    32    50 1   
@<TRIPOS>SUBSTRUCTURE
     1 6B3         1 TEMP              0 ****  ****    0 ROOT
