@<TRIPOS>MOLECULE
molecule
   54    56     1     0     0
SMALL
bcc


@<TRIPOS>ATOM
      1 CAA          0.0000     0.0000     0.0000 c3         1 6B4      -0.018000
      2 SAT          1.8150     0.0000     0.0000 ss         1 6B4      -0.264000
      3 CAY          2.2110     0.0000     1.7170 ca         1 6B4       0.050900
      4 CAG          1.1960    -0.0070     2.6660 ca         1 6B4      -0.146000
      5 CAE          1.5100    -0.0070     4.0110 ca         1 6B4      -0.112000
      6 CAF          2.8330    -0.0000     4.4130 ca         1 6B4      -0.133000
      7 CAH          3.8460     0.0070     3.4720 ca         1 6B4      -0.096000
      8 CAZ          3.5390     0.0010     2.1260 ca         1 6B4      -0.072300
      9 CBA          4.6440     0.0010     1.1000 c3         1 6B4       0.161000
     10 CAP          4.9660     1.4510     0.6780 c3         1 6B4      -0.086400
     11 CAM          6.5100     1.4330     0.5290 c3         1 6B4      -0.096400
     12 CAQ          6.9220     0.4640     1.6670 c3         1 6B4       0.089000
     13 N1           5.8680    -0.5660     1.6840 n          1 6B4      -0.491800
     14 C            6.0050    -1.8210     2.1560 c          1 6B4       0.663100
     15 O            5.0650    -2.5890     2.1200 o          1 6B4      -0.602100
     16 CA           7.3230    -2.2710     2.7290 c3         1 6B4       0.064000
     17 N            7.2140    -3.6640     3.1710 ns         1 6B4      -0.597900
     18 CAU          8.2780    -4.2820     3.7210 c          1 6B4       0.783100
     19 OAC          9.3290    -3.6840     3.8500 o          1 6B4      -0.671100
     20 N2           8.1770    -5.5640     4.1260 ns         1 6B4      -0.600900
     21 CAO          9.3340    -6.2360     4.7240 c3         1 6B4       0.181300
     22 CAX          8.9610    -7.6490     5.0880 ca         1 6B4      -0.128300
     23 CAK          8.4390    -7.9240     6.3400 ca         1 6B4      -0.107500
     24 CAI          8.0960    -9.2190     6.6770 ca         1 6B4      -0.148500
     25 CAW          8.2740   -10.2450     5.7580 ca         1 6B4       0.173600
     26 N3           7.9280   -11.5550     6.0950 nv         1 6B4      -0.992200
     27 CAJ          8.7980    -9.9650     4.5020 ca         1 6B4      -0.148500
     28 CAL          9.1350    -8.6680     4.1690 ca         1 6B4      -0.107500
     29 H1          -0.3610     0.0090    -1.0210 h1         1 6B4       0.065033
     30 H2          -0.3610     0.8800     0.5190 h1         1 6B4       0.065033
     31 H3          -0.3610    -0.8890     0.5030 h1         1 6B4       0.065033
     32 H4           0.1600    -0.0130     2.3510 ha         1 6B4       0.131000
     33 H5           0.7190    -0.0130     4.7510 ha         1 6B4       0.130000
     34 H6           3.0770     0.0020     5.4690 ha         1 6B4       0.130000
     35 H7           4.8810     0.0100     3.7910 ha         1 6B4       0.134000
     36 H8           4.3490    -0.5770     0.2330 h1         1 6B4       0.083700
     37 H9           4.4940     1.6870    -0.2680 hc         1 6B4       0.064700
     38 H10          4.6650     2.1490     1.4500 hc         1 6B4       0.064700
     39 H11          6.9250     2.4200     0.6940 hc         1 6B4       0.058700
     40 H12          6.8000     1.0390    -0.4370 hc         1 6B4       0.058700
     41 H13          6.9500     0.9880     2.6150 h1         1 6B4       0.049700
     42 H14          7.8830     0.0150     1.4490 h1         1 6B4       0.049700
     43 H15          7.5830    -1.6440     3.5730 h1         1 6B4       0.069700
     44 H16          8.0920    -2.1920     1.9700 h1         1 6B4       0.069700
     45 H17          6.3540    -4.1620     3.0480 hn         1 6B4       0.334500
     46 H18         10.1500    -6.2500     4.0120 h1         1 6B4       0.057200
     47 H19          9.6410    -5.7020     5.6150 h1         1 6B4       0.057200
     48 H20          8.3000    -7.1240     7.0560 ha         1 6B4       0.135000
     49 H21          7.6870    -9.4330     7.6570 ha         1 6B4       0.137000
     50 H22          8.9370   -10.7630     3.7830 ha         1 6B4       0.137000
     51 H23          9.5440    -8.4490     3.1900 ha         1 6B4       0.135000
     52 H24          7.3150    -6.0590     4.0100 hn         1 6B4       0.314500
     53 H25          7.0030   -11.8910     5.9120 hn         1 6B4       0.428800
     54 H26          8.6040   -12.1580     6.5200 hn         1 6B4       0.428800
@<TRIPOS>BOND
     1     1     2 1   
     2     2     3 1   
     3     4     3 ar  
     4     4     5 ar  
     5     3     8 ar  
     6     5     6 ar  
     7     8     9 1   
     8     8     7 ar  
     9     9    10 1   
    10     9    13 1   
    11     6     7 ar  
    12    19    18 2   
    13    10    11 1   
    14    16    17 1   
    15    16    14 1   
    16    18    17 1   
    17    18    20 1   
    18    21    22 1   
    19    13    14 1   
    20    13    12 1   
    21    11    12 1   
    22    14    15 2   
    23    22    28 ar  
    24    22    23 ar  
    25    28    27 ar  
    26    23    24 ar  
    27    27    25 ar  
    28    24    25 ar  
    29    25    26 1   
    30    20    21 1   
    31     1    29 1   
    32     1    30 1   
    33     1    31 1   
    34     4    32 1   
    35     5    33 1   
    36     6    34 1   
    37     7    35 1   
    38     9    36 1   
    39    10    37 1   
    40    10    38 1   
    41    11    39 1   
    42    11    40 1   
    43    12    41 1   
    44    12    42 1   
    45    16    43 1   
    46    16    44 1   
    47    17    45 1   
    48    21    46 1   
    49    21    47 1   
    50    23    48 1   
    51    24    49 1   
    52    27    50 1   
    53    28    51 1   
    54    20    52 1   
    55    26    53 1   
    56    26    54 1   
@<TRIPOS>SUBSTRUCTURE
     1 6B4         1 TEMP              0 ****  ****    0 ROOT
