@<TRIPOS>MOLECULE
molecule
   34    36     1     0     0
SMALL
bcc


@<TRIPOS>ATOM
      1 C10          0.0000     0.0000     0.0000 ca         1 6B5      -0.156000
      2 C02          5.6230    -0.0010     0.0040 c          1 6B5       0.586900
      3 C03          6.3160    -0.0010     1.3020 ca         1 6B5      -0.288600
      4 C04          5.5430    -0.0020     2.4760 ca         1 6B5       0.210100
      5 O05          4.1950    -0.0010     2.3900 os         1 6B5      -0.213200
      6 C06          3.5520    -0.0010     1.2130 cc         1 6B5       0.200900
      7 C07          4.2070     0.0060     0.0210 cd         1 6B5      -0.330200
      8 C08          2.0760     0.0000     1.2100 ca         1 6B5      -0.064800
      9 C09          1.3780     0.0000     0.0000 ca         1 6B5      -0.092000
     10 C11         -0.6970     0.0060     1.2000 ca         1 6B5       0.111100
     11 O12         -2.0560     0.0060     1.1940 oh         1 6B5      -0.508100
     12 C13         -0.0070     0.0100     2.4110 ca         1 6B5       0.087100
     13 O14         -0.6930     0.0200     3.5850 oh         1 6B5      -0.506100
     14 C15          1.3740     0.0100     2.4190 ca         1 6B5      -0.121000
     15 C16          6.1760    -0.0030     3.7090 ca         1 6B5      -0.210000
     16 C17          7.5610    -0.0030     3.7780 ca         1 6B5       0.213100
     17 O18          8.1720    -0.0040     4.9900 os         1 6B5      -0.319900
     18 C19          9.6020    -0.0050     4.9950 c3         1 6B5       0.127700
     19 C20          8.3280    -0.0030     2.6190 ca         1 6B5      -0.309000
     20 C21          7.7150    -0.0020     1.3790 ca         1 6B5       0.239100
     21 O22          8.4620    -0.0020     0.2470 oh         1 6B5      -0.486100
     22 H101        -0.5400    -0.0000    -0.9390 ha         1 6B5       0.150000
     23 H071         3.6500     0.0060    -0.9080 ha         1 6B5       0.169000
     24 H091         1.9200    -0.0050    -0.9380 ha         1 6B5       0.149000
     25 H121        -2.3690     0.8630     0.9560 ho         1 6B5       0.427000
     26 H141        -0.6190    -0.8240     3.9990 ho         1 6B5       0.425000
     27 H151         1.9120     0.0130     3.3590 ha         1 6B5       0.159000
     28 H161         5.5880    -0.0040     4.6190 ha         1 6B5       0.162000
     29 H193         9.9640    -0.8890     4.4840 h1         1 6B5       0.047033
     30 H192         9.9590    -0.0070     6.0170 h1         1 6B5       0.047033
     31 H191         9.9650     0.8800     4.4870 h1         1 6B5       0.047033
     32 H201         9.4090    -0.0030     2.6870 ha         1 6B5       0.149000
     33 H221         8.9290     0.8150     0.1790 ho         1 6B5       0.430000
     34 O01          6.2440     0.0000    -1.0470 o          1 6B5      -0.529100
@<TRIPOS>BOND
     1    13    12 1   
     2    12    14 ar  
     3    12    10 ar  
     4    34     2 2   
     5    14     8 ar  
     6     7     2 1   
     7     7     6 2   
     8     2     3 1   
     9    21    20 1   
    10    11    10 1   
    11    10     1 ar  
    12     8     6 1   
    13     8     9 ar  
    14     6     5 1   
    15     3    20 ar  
    16     3     4 ar  
    17    20    19 ar  
    18     5     4 1   
    19     4    15 ar  
    20    19    16 ar  
    21     1     9 ar  
    22    15    16 ar  
    23    16    17 1   
    24    18    17 1   
    25     1    22 1   
    26     7    23 1   
    27     9    24 1   
    28    11    25 1   
    29    13    26 1   
    30    14    27 1   
    31    15    28 1   
    32    18    29 1   
    33    18    30 1   
    34    18    31 1   
    35    19    32 1   
    36    21    33 1   
@<TRIPOS>SUBSTRUCTURE
     1 6B5         1 TEMP              0 ****  ****    0 ROOT
