@<TRIPOS>MOLECULE
molecule
   45    45     1     0     0
SMALL
bcc


@<TRIPOS>ATOM
      1 C10          0.0000     0.0000     0.0000 c3         1 6B7      -0.096100
      2 CD           2.4040     0.0000     0.6750 c2         1 6B7       0.333300
      3 C12          2.2350     0.6810     2.0080 c3         1 6B7      -0.193000
      4 N            3.4840     0.0000     0.0000 n2         1 6B7      -0.474900
      5 C13          1.2330     1.8000     1.8770 c          1 6B7       0.595900
      6 C14          3.5790     1.2520     2.4640 c3         1 6B7       0.165100
      7 C15          4.5960     0.1170     2.5970 c3         1 6B7      -0.112100
      8 S1           1.1900     0.4270    -2.5320 ss         1 6B7      -0.242200
      9 C1           0.8670     0.7500    -5.2110 c          1 6B7       0.655100
     10 O1           0.2910     1.7420    -4.8300 o          1 6B7      -0.551000
     11 O2           0.9580     0.4900    -6.5240 os         1 6B7      -0.431900
     12 C2           0.3430     1.4440    -7.4300 c3         1 6B7       0.150400
     13 C3           0.5500     0.9820    -8.8730 c3         1 6B7      -0.087400
     14 C4          -0.0990     1.9880    -9.8280 c3         1 6B7      -0.091100
     15 O5           0.2240     1.7860     2.5390 o          1 6B7      -0.563100
     16 C5           1.4810    -0.1950    -4.2110 c3         1 6B7      -0.069300
     17 O6           4.0460     2.2000     1.5010 oh         1 6B7      -0.557800
     18 CB           1.8400    -0.9040    -1.4850 c3         1 6B7      -0.002600
     19 CA           3.3610    -0.7440    -1.2580 c3         1 6B7      -0.004500
     20 C            3.9800     0.0380    -2.3880 c          1 6B7       0.898600
     21 CG           1.3170    -0.7780    -0.0320 c3         1 6B7      -0.140000
     22 H1          -0.4240    -0.0480     0.9960 hc         1 6B7       0.043367
     23 H2           0.1850     1.0340    -0.2640 hc         1 6B7       0.043367
     24 H3          -0.6940    -0.4350    -0.7090 hc         1 6B7       0.043367
     25 H5           1.8810    -0.0360     2.7380 hc         1 6B7       0.071700
     26 H8           1.4440     2.6430     1.2300 h4         1 6B7       0.026200
     27 H9           3.4570     1.7410     3.4230 h1         1 6B7       0.008700
     28 H10          4.0740    -0.8320     2.6420 hc         1 6B7       0.044367
     29 H11          5.1740     0.2540     3.5030 hc         1 6B7       0.044367
     30 H12          5.2590     0.1240     1.7410 hc         1 6B7       0.044367
     31 H13         -0.7180     1.5090    -7.2200 h1         1 6B7       0.044200
     32 H14          0.7980     2.4170    -7.2930 h1         1 6B7       0.044200
     33 H15          1.6100     0.9170    -9.0830 hc         1 6B7       0.051700
     34 H16          0.0940     0.0090    -9.0100 hc         1 6B7       0.051700
     35 H18         -1.1600     2.0510    -9.6200 hc         1 6B7       0.032033
     36 H19          0.3560     2.9620    -9.6900 hc         1 6B7       0.032033
     37 H20          0.0500     1.6620   -10.8510 hc         1 6B7       0.032033
     38 H21          1.0300    -1.1750    -4.3160 h1         1 6B7       0.114700
     39 H22          2.5470    -0.2680    -4.3890 h1         1 6B7       0.114700
     40 H23          4.4990     2.8990     1.9430 ho         1 6B7       0.382000
     41 H24          1.6100    -1.8800    -1.8950 h1         1 6B7       0.060700
     42 H25          3.8290    -1.7170    -1.1650 h1         1 6B7       0.072700
     43 H26          1.1990    -1.7580     0.4160 hc         1 6B7       0.051700
     44 O            4.0690     1.2400    -2.3110 o          1 6B7      -0.819800
     45 OXT          4.4320    -0.6010    -3.4790 o          1 6B7      -0.819800
@<TRIPOS>BOND
     1    14    13 1   
     2    13    12 1   
     3    12    11 1   
     4    11     9 1   
     5    44    20 1   
     6     9    10 2   
     7     9    16 1   
     8    16     8 1   
     9    20    45 1   
    10    20    19 1   
    11     8    18 1   
    12    19    18 1   
    13    19     4 1   
    14    18    21 1   
    15     4     2 2   
    16    15     5 2   
    17    21     1 1   
    18    21     2 1   
    19     2     3 1   
    20     5     3 1   
    21     3     6 1   
    22     6    17 1   
    23     6     7 1   
    24     1    22 1   
    25     1    23 1   
    26     1    24 1   
    27     3    25 1   
    28     5    26 1   
    29     6    27 1   
    30     7    28 1   
    31     7    29 1   
    32     7    30 1   
    33    12    31 1   
    34    12    32 1   
    35    13    33 1   
    36    13    34 1   
    37    14    35 1   
    38    14    36 1   
    39    14    37 1   
    40    16    38 1   
    41    16    39 1   
    42    17    40 1   
    43    18    41 1   
    44    19    42 1   
    45    21    43 1   
@<TRIPOS>SUBSTRUCTURE
     1 6B7         1 TEMP              0 ****  ****    0 ROOT
