@<TRIPOS>MOLECULE
6B7
   45    45     1     0     0
SMALL
bcc


@<TRIPOS>ATOM
      1 C10          0.0000     0.0000     0.0000 c3         1 6B7      -0.031100
      2 CD           2.4040     0.0000     0.6750 c2         1 6B7       0.275300
      3 C12          2.2350     0.6810     2.0080 c3         1 6B7      -0.185000
      4 N            3.4840     0.0000     0.0000 n2         1 6B7      -0.389900
      5 C13          1.2330     1.8000     1.8770 c          1 6B7       0.683900
      6 C14          3.5790     1.2520     2.4640 c3         1 6B7       0.211100
      7 C15          4.5960     0.1170     2.5970 c3         1 6B7      -0.040100
      8 S1           1.1900     0.4270    -2.5320 ss         1 6B7      -0.334200
      9 C1           0.8670     0.7500    -5.2110 c          1 6B7       0.722100
     10 O1           0.2910     1.7420    -4.8300 o          1 6B7      -0.582000
     11 O2           0.9580     0.4900    -6.5240 os         1 6B7      -0.415900
     12 C2           0.3430     1.4440    -7.4300 c3         1 6B7       0.224400
     13 C3           0.5500     0.9820    -8.8730 c3         1 6B7      -0.040400
     14 C4          -0.0990     1.9880    -9.8280 c3         1 6B7       0.011900
     15 O5           0.2240     1.7860     2.5390 o          1 6B7      -0.599100
     16 C5           1.4810    -0.1950    -4.2110 c3         1 6B7      -0.012300
     17 O6           4.0460     2.2000     1.5010 oh         1 6B7      -0.536800
     18 CB           1.8400    -0.9040    -1.4850 c3         1 6B7       0.049400
     19 CA           3.3610    -0.7440    -1.2580 c3         1 6B7      -0.000500
     20 C            3.9800     0.0380    -2.3880 c          1 6B7       0.976600
     21 CG           1.3170    -0.7780    -0.0320 c3         1 6B7      -0.082000
     22 H1          -0.4240    -0.0480     0.9960 hc         1 6B7       0.021033
     23 H2           0.1850     1.0340    -0.2640 hc         1 6B7       0.021033
     24 H3          -0.6940    -0.4350    -0.7090 hc         1 6B7       0.021033
     25 H5           1.8810    -0.0360     2.7380 hc         1 6B7       0.042700
     26 H8           1.4440     2.6430     1.2300 h4         1 6B7      -0.012800
     27 H9           3.4570     1.7410     3.4230 h1         1 6B7      -0.022300
     28 H10          4.0740    -0.8320     2.6420 hc         1 6B7       0.015367
     29 H11          5.1740     0.2540     3.5030 hc         1 6B7       0.015367
     30 H12          5.2590     0.1240     1.7410 hc         1 6B7       0.015367
     31 H13         -0.7180     1.5090    -7.2200 h1         1 6B7       0.007700
     32 H14          0.7980     2.4170    -7.2930 h1         1 6B7       0.007700
     33 H15          1.6100     0.9170    -9.0830 hc         1 6B7       0.019200
     34 H16          0.0940     0.0090    -9.0100 hc         1 6B7       0.019200
     35 H18         -1.1600     2.0510    -9.6200 hc         1 6B7      -0.001633
     36 H19          0.3560     2.9620    -9.6900 hc         1 6B7      -0.001633
     37 H20          0.0500     1.6620   -10.8510 hc         1 6B7      -0.001633
     38 H21          1.0300    -1.1750    -4.3160 h1         1 6B7       0.091200
     39 H22          2.5470    -0.2680    -4.3890 h1         1 6B7       0.091200
     40 H23          4.4990     2.8990     1.9430 ho         1 6B7       0.366000
     41 H24          1.6100    -1.8800    -1.8950 h1         1 6B7       0.040700
     42 H25          3.8290    -1.7170    -1.1650 h1         1 6B7       0.043700
     43 H26          1.1990    -1.7580     0.4160 hc         1 6B7       0.023700
     44 O            4.0690     1.2400    -2.3110 o          1 6B7      -0.863800
     45 OXT          4.4320    -0.6010    -3.4790 o          1 6B7      -0.863800
@<TRIPOS>BOND
     1     1    21 1   
     2     1    22 1   
     3     1    23 1   
     4     1    24 1   
     5     2     3 1   
     6     2     4 2   
     7     2    21 1   
     8     3     5 1   
     9     3     6 1   
    10     3    25 1   
    11     4    19 1   
    12     5    15 2   
    13     5    26 1   
    14     6     7 1   
    15     6    17 1   
    16     6    27 1   
    17     7    28 1   
    18     7    29 1   
    19     7    30 1   
    20     8    16 1   
    21     8    18 1   
    22     9    10 2   
    23     9    11 1   
    24     9    16 1   
    25    11    12 1   
    26    12    13 1   
    27    12    31 1   
    28    12    32 1   
    29    13    14 1   
    30    13    33 1   
    31    13    34 1   
    32    14    35 1   
    33    14    36 1   
    34    14    37 1   
    35    16    38 1   
    36    16    39 1   
    37    17    40 1   
    38    18    19 1   
    39    18    21 1   
    40    18    41 1   
    41    19    20 1   
    42    19    42 1   
    43    20    44 1   
    44    20    45 1   
    45    21    43 1   
@<TRIPOS>SUBSTRUCTURE
     1 6B7         1 TEMP              0 ****  ****    0 ROOT
