@<TRIPOS>MOLECULE
6B8
   33    33     1     0     0
SMALL
bcc


@<TRIPOS>ATOM
      1 OXT          0.0000     0.0000     0.0000 o          1 6B8      -0.853300
      2 C05          1.3470     0.0000     0.0000 c          1 6B8       0.886300
      3 O            1.9540     0.0000     1.0510 o          1 6B8      -0.853300
      4 C04          2.0870     0.0010    -1.2840 ce         1 6B8       0.394300
      5 C09          3.5910     0.1110    -1.4030 c3         1 6B8      -0.004900
      6 S17          4.2220     1.4230    -0.3200 ss         1 6B8      -0.339200
      7 C18          6.0200     1.2630    -0.4890 c3         1 6B8       0.083000
      8 C10          3.8190     0.4770    -2.8890 c3         1 6B8      -0.085700
      9 C11          3.9310     1.9920    -3.0750 c3         1 6B8      -0.069100
     10 C12          2.5180    -0.0680    -3.5250 c3         1 6B8       0.119500
     11 N1           1.5400    -0.0980    -2.4300 n2         1 6B8      -0.535900
     12 C13          2.0420     0.8620    -4.6420 c3         1 6B8      -0.175700
     13 C02          1.5980     2.1750    -4.0480 c          1 6B8       0.686900
     14 O01          2.1430     3.2010    -4.3760 o          1 6B8      -0.594100
     15 C14          0.8680     0.2140    -5.3800 c3         1 6B8       0.199100
     16 O16          1.2890    -1.0290    -5.9440 oh         1 6B8      -0.593800
     17 C15          0.3930     1.1450    -6.4970 c3         1 6B8      -0.042100
     18 H3           4.0590    -0.8380    -1.1710 h1         1 6B8       0.054700
     19 H4           6.4210     2.1580    -0.9490 h1         1 6B8       0.021033
     20 H5           6.4650     1.1300     0.4900 h1         1 6B8       0.021033
     21 H6           6.2500     0.4050    -1.1090 h1         1 6B8       0.021033
     22 H7           4.6870    -0.0370    -3.2850 hc         1 6B8       0.022700
     23 H8           4.8610     2.3400    -2.6430 hc         1 6B8       0.034367
     24 H9           3.9130     2.2280    -4.1320 hc         1 6B8       0.034367
     25 H10          3.0990     2.4780    -2.5810 hc         1 6B8       0.034367
     26 H11          2.6800    -1.0690    -3.9070 h1         1 6B8       0.046700
     27 H14          2.8540     1.0370    -5.3380 hc         1 6B8       0.050700
     28 H15          0.7630     2.2020    -3.3590 h4         1 6B8      -0.002800
     29 H16          0.0560     0.0400    -4.6850 h1         1 6B8       0.036700
     30 H17          0.5330    -1.5280    -6.2050 ho         1 6B8       0.386000
     31 H18         -0.2970     0.6130    -7.1410 hc         1 6B8       0.006367
     32 H19         -0.1060     2.0040    -6.0640 hc         1 6B8       0.006367
     33 H20          1.2450     1.4780    -7.0780 hc         1 6B8       0.006367
@<TRIPOS>BOND
     1     1     2 1   
     2     2     3 1   
     3     2     4 1   
     4     4     5 1   
     5     4    11 2   
     6     5     6 1   
     7     5     8 1   
     8     5    18 1   
     9     6     7 1   
    10     7    19 1   
    11     7    20 1   
    12     7    21 1   
    13     8     9 1   
    14     8    10 1   
    15     8    22 1   
    16     9    23 1   
    17     9    24 1   
    18     9    25 1   
    19    10    11 1   
    20    10    12 1   
    21    10    26 1   
    22    12    13 1   
    23    12    15 1   
    24    12    27 1   
    25    13    14 2   
    26    13    28 1   
    27    15    16 1   
    28    15    17 1   
    29    15    29 1   
    30    16    30 1   
    31    17    31 1   
    32    17    32 1   
    33    17    33 1   
@<TRIPOS>SUBSTRUCTURE
     1 6B8         1 TEMP              0 ****  ****    0 ROOT
