@<TRIPOS>MOLECULE
molecule
   33    33     1     0     0
SMALL
bcc


@<TRIPOS>ATOM
      1 OXT          0.0000     0.0000     0.0000 o          1 6B8      -0.801800
      2 C05          1.3470     0.0000     0.0000 c          1 6B8       0.803300
      3 O            1.9540     0.0000     1.0510 o          1 6B8      -0.801800
      4 C04          2.0870     0.0010    -1.2840 ce         1 6B8       0.417300
      5 C09          3.5910     0.1110    -1.4030 c3         1 6B8      -0.071900
      6 S17          4.2220     1.4230    -0.3200 ss         1 6B8      -0.260200
      7 C18          6.0200     1.2630    -0.4890 c3         1 6B8      -0.030000
      8 C10          3.8190     0.4770    -2.8890 c3         1 6B8      -0.116700
      9 C11          3.9310     1.9920    -3.0750 c3         1 6B8      -0.100100
     10 C12          2.5180    -0.0680    -3.5250 c3         1 6B8       0.104500
     11 N1           1.5400    -0.0980    -2.4300 n2         1 6B8      -0.584900
     12 C13          2.0420     0.8620    -4.6420 c3         1 6B8      -0.163700
     13 C02          1.5980     2.1750    -4.0480 c          1 6B8       0.599900
     14 O01          2.1430     3.2010    -4.3760 o          1 6B8      -0.563100
     15 C14          0.8680     0.2140    -5.3800 c3         1 6B8       0.154100
     16 O16          1.2890    -1.0290    -5.9440 oh         1 6B8      -0.611800
     17 C15          0.3930     1.1450    -6.4970 c3         1 6B8      -0.131100
     18 H3           4.0590    -0.8380    -1.1710 h1         1 6B8       0.076700
     19 H4           6.4210     2.1580    -0.9490 h1         1 6B8       0.045033
     20 H5           6.4650     1.1300     0.4900 h1         1 6B8       0.045033
     21 H6           6.2500     0.4050    -1.1090 h1         1 6B8       0.045033
     22 H7           4.6870    -0.0370    -3.2850 hc         1 6B8       0.044700
     23 H8           4.8610     2.3400    -2.6430 hc         1 6B8       0.047700
     24 H9           3.9130     2.2280    -4.1320 hc         1 6B8       0.047700
     25 H10          3.0990     2.4780    -2.5810 hc         1 6B8       0.047700
     26 H11          2.6800    -1.0690    -3.9070 h1         1 6B8       0.078700
     27 H14          2.8540     1.0370    -5.3380 hc         1 6B8       0.070700
     28 H15          0.7630     2.2020    -3.3590 h4         1 6B8       0.033200
     29 H16          0.0560     0.0400    -4.6850 h1         1 6B8       0.067700
     30 H17          0.5330    -1.5280    -6.2050 ho         1 6B8       0.397000
     31 H18         -0.2970     0.6130    -7.1410 hc         1 6B8       0.036700
     32 H19         -0.1060     2.0040    -6.0640 hc         1 6B8       0.036700
     33 H20          1.2450     1.4780    -7.0780 hc         1 6B8       0.036700
@<TRIPOS>BOND
     1     3     2 1   
     2     1     2 1   
     3     2     4 1   
     4     7     6 1   
     5     4     5 1   
     6     4    11 2   
     7     6     5 1   
     8     5     8 1   
     9    11    10 1   
    10     8    10 1   
    11     8     9 1   
    12    14    13 2   
    13    10    12 1   
    14    13    12 1   
    15    12    15 1   
    16    15    16 1   
    17    15    17 1   
    18     5    18 1   
    19     7    19 1   
    20     7    20 1   
    21     7    21 1   
    22     8    22 1   
    23     9    23 1   
    24     9    24 1   
    25     9    25 1   
    26    10    26 1   
    27    12    27 1   
    28    13    28 1   
    29    15    29 1   
    30    16    30 1   
    31    17    31 1   
    32    17    32 1   
    33    17    33 1   
@<TRIPOS>SUBSTRUCTURE
     1 6B8         1 TEMP              0 ****  ****    0 ROOT
