@<TRIPOS>MOLECULE
molecule
   40    43     1     0     0
SMALL
bcc


@<TRIPOS>ATOM
      1 O            0.0000     0.0000     0.0000 o          1 6B9      -0.807800
      2 C7           1.2150     0.0000     0.0000 c          1 6B9       0.873200
      3 C3           1.9520     0.0000     1.2800 ca         1 6B9      -0.070600
      4 C4           3.3400    -0.0000     1.2850 ca         1 6B9      -0.063000
      5 C5           4.0320    -0.0000     2.5000 ca         1 6B9       0.112400
      6 N            5.3980     0.0010     2.5060 ne         1 6B9      -0.535100
      7 C6           6.0470     0.8010     3.3090 c2         1 6B9       0.454100
      8 S            7.8100     0.8020     3.3170 sh         1 6B9      -0.302000
      9 C            3.3290    -0.0000     3.7100 ca         1 6B9      -0.197000
     10 O1           1.8890    -0.0040    -1.1650 o          1 6B9      -0.807800
     11 C8          -0.2210     0.0090     2.5110 cd         1 6B9       0.162000
     12 C2           1.2480     0.0040     2.5060 ca         1 6B9      -0.061000
     13 C1           1.9540    -0.0000     3.7140 ca         1 6B9      -0.136000
     14 C16         -0.9830    -1.1980     2.8470 ca         1 6B9      -0.185300
     15 C17         -0.3290    -2.3940     3.1680 ca         1 6B9      -0.045000
     16 C18         -1.0600    -3.5040     3.4770 ca         1 6B9      -0.192000
     17 C19         -2.4530    -3.4530     3.4750 ca         1 6B9       0.140100
     18 O4          -3.1670    -4.5650     3.7850 oh         1 6B9      -0.522100
     19 C20         -3.1160    -2.2780     3.1600 ca         1 6B9      -0.256300
     20 C15         -2.3910    -1.1400     2.8430 ca         1 6B9       0.400000
     21 O3          -3.0280     0.0090     2.5350 os         1 6B9      -0.380800
     22 C10         -2.3650     1.1420     2.2200 cc         1 6B9       0.359700
     23 C11         -3.0750     2.2870     1.9140 cd         1 6B9      -0.336200
     24 C12         -2.3930     3.4640     1.5870 c          1 6B9       0.588500
     25 O2          -3.0240     4.4800     1.3150 o          1 6B9      -0.617100
     26 C13         -0.9840     3.4890     1.5660 cd         1 6B9      -0.263200
     27 C14         -0.2770     2.3700     1.8650 cc         1 6B9      -0.013200
     28 C9          -0.9520     1.1800     2.1980 cc         1 6B9      -0.188100
     29 H1           3.8850     0.0700     0.3510 ha         1 6B9       0.183000
     30 H2           5.5020     1.4640     3.9700 h5         1 6B9      -0.015200
     31 H3           8.2480     1.8380     4.0200 hs         1 6B9       0.192800
     32 H4           3.7370    -0.1770     4.6980 ha         1 6B9       0.121000
     33 H6           1.6020     0.0950     4.7340 ha         1 6B9       0.123000
     34 H7           0.7540    -2.4380     3.1700 ha         1 6B9       0.155000
     35 H8          -0.5540    -4.4300     3.7230 ha         1 6B9       0.138000
     36 H9          -3.3580    -4.5690     4.7080 ho         1 6B9       0.414000
     37 H10         -4.1990    -2.2490     3.1620 ha         1 6B9       0.151000
     38 H11         -4.1570     2.2600     1.8740 ha         1 6B9       0.147000
     39 H13         -0.4630     4.4050     1.3120 ha         1 6B9       0.139000
     40 H14          0.8060     2.3930     1.8490 ha         1 6B9       0.142000
@<TRIPOS>BOND
     1     8     7 1   
     2     7     6 2   
     3     6     5 1   
     4     9     5 ar  
     5     9    13 ar  
     6     5     4 ar  
     7    13    12 ar  
     8     4     3 ar  
     9    12     3 ar  
    10    12    11 1   
    11     3     2 1   
    12    27    26 2   
    13    27    28 1   
    14    26    24 1   
    15    11    28 2   
    16    11    14 1   
    17     1     2 1   
    18     2    10 1   
    19    28    22 1   
    20    15    14 ar  
    21    15    16 ar  
    22    14    20 ar  
    23    24    25 2   
    24    24    23 1   
    25    16    17 ar  
    26    22    23 2   
    27    22    21 1   
    28    20    21 1   
    29    20    19 ar  
    30    17    19 ar  
    31    17    18 1   
    32     4    29 1   
    33     7    30 1   
    34     8    31 1   
    35     9    32 1   
    36    13    33 1   
    37    15    34 1   
    38    16    35 1   
    39    18    36 1   
    40    19    37 1   
    41    23    38 1   
    42    26    39 1   
    43    27    40 1   
@<TRIPOS>SUBSTRUCTURE
     1 6B9         1 TEMP              0 ****  ****    0 ROOT
