@<TRIPOS>MOLECULE
6B9
   40    44     1     0     0
SMALL
bcc


@<TRIPOS>ATOM
      1 O            0.0000     0.0000     0.0000 o          1 6B9      -0.592000
      2 C7           1.2150     0.0000     0.0000 c2         1 6B9       0.411000
      3 C3           1.9520     0.0000     1.2800 ca         1 6B9      -0.053000
      4 C4           3.3400    -0.0000     1.2850 ca         1 6B9      -0.051000
      5 C5           4.0320    -0.0000     2.5000 ca         1 6B9      -0.086000
      6 N            5.3980     0.0010     2.5060 n2         1 6B9       0.123000
      7 C6           6.0470     0.8010     3.3090 c2         1 6B9      -0.320000
      8 S            7.8100     0.8020     3.3170 s4         1 6B9      -0.204000
      9 C            3.3290    -0.0000     3.7100 ca         1 6B9      -0.119000
     10 O1           1.8890    -0.0040    -1.1650 o          1 6B9      -0.592000
     11 C8          -0.2210     0.0090     2.5110 c2         1 6B9       0.183000
     12 C2           1.2480     0.0040     2.5060 ca         1 6B9      -0.034000
     13 C1           1.9540    -0.0000     3.7140 ca         1 6B9      -0.125000
     14 C16         -0.9830    -1.1980     2.8470 ca         1 6B9      -0.133000
     15 C17         -0.3290    -2.3940     3.1680 ca         1 6B9      -0.013000
     16 C18         -1.0600    -3.5040     3.4770 ca         1 6B9      -0.182000
     17 C19         -2.4530    -3.4530     3.4750 ca         1 6B9       0.117000
     18 O4          -3.1670    -4.5650     3.7850 oh         1 6B9      -0.257000
     19 C20         -3.1160    -2.2780     3.1600 ca         1 6B9      -0.189000
     20 C15         -2.3910    -1.1400     2.8430 ca         1 6B9       0.149000
     21 O3          -3.0280     0.0090     2.5350 os         1 6B9      -0.088000
     22 C10         -2.3650     1.1420     2.2200 ca         1 6B9       0.174000
     23 C11         -3.0750     2.2870     1.9140 ca         1 6B9      -0.318000
     24 C12         -2.3930     3.4640     1.5870 ca         1 6B9       0.361000
     25 O2          -3.0240     4.4800     1.3150 o          1 6B9      -0.415000
     26 C13         -0.9840     3.4890     1.5660 ca         1 6B9      -0.223000
     27 C14         -0.2770     2.3700     1.8650 ca         1 6B9       0.003000
     28 C9          -0.9520     1.1800     2.1980 ca         1 6B9      -0.118000
     29 H1           3.8840    -0.0750     0.3510 ha         1 6B9       0.149000
     30 H2           6.6620     1.2890     2.5630 DU         1 6B9       0.266000
     31 H3           8.2460     0.8410     4.5700 hs         1 6B9       0.054000
     32 H4           3.7670    -0.0730     4.6980 ha         1 6B9       0.111000
     33 H6           1.6180     0.1140     4.7370 ha         1 6B9       0.106000
     34 H7           0.7540    -2.4380     3.1700 ha         1 6B9       0.120000
     35 H8          -0.5540    -4.4300     3.7240 ha         1 6B9       0.112000
     36 H9          -3.3610    -4.5670     4.7080 ho         1 6B9       0.196000
     37 H10         -4.1990    -2.2490     3.1620 ha         1 6B9       0.125000
     38 H11         -4.1560     2.2890     1.9820 ha         1 6B9       0.126000
     39 H13         -0.4630     4.4050     1.3120 ha         1 6B9       0.115000
     40 H14          0.8060     2.3930     1.8490 ha         1 6B9       0.112000
@<TRIPOS>BOND
     1     1     2 1   
     2     2     3 1   
     3     2    10 1   
     4     3     4 1   
     5     3    12 1   
     6     4     5 1   
     7     4    29 1   
     8     5     6 1   
     9     5     9 1   
    10     6     7 1   
    11     7     8 1   
    12     7    30 1   
    13     8    30 1   
    14     8    31 1   
    15     9    13 1   
    16     9    32 1   
    17    11    12 1   
    18    11    14 1   
    19    11    28 1   
    20    12    13 1   
    21    13    33 1   
    22    14    15 1   
    23    14    20 1   
    24    15    16 1   
    25    15    34 1   
    26    16    17 1   
    27    16    35 1   
    28    17    18 1   
    29    17    19 1   
    30    18    36 1   
    31    19    20 1   
    32    19    37 1   
    33    20    21 1   
    34    21    22 1   
    35    22    23 1   
    36    22    28 1   
    37    23    24 1   
    38    23    38 1   
    39    24    25 1   
    40    24    26 1   
    41    26    27 1   
    42    26    39 1   
    43    27    28 1   
    44    27    40 1   
@<TRIPOS>SUBSTRUCTURE
     1 6B9         1 TEMP              0 ****  ****    0 ROOT
