@<TRIPOS>MOLECULE
molecule
   47    50     1     0     0
SMALL
bcc


@<TRIPOS>ATOM
      1 C1           0.0000     0.0000     0.0000 cc         1 6BB      -0.249300
      2 C2          -0.8770    -0.0000    -1.1960 ca         1 6BB       0.003000
      3 C3          -1.9220    -0.9180    -1.3190 ca         1 6BB      -0.215300
      4 C11          2.8890     5.6580    -3.8830 c3         1 6BB       0.159800
      5 C12          1.6800     4.7470    -4.1140 c3         1 6BB      -0.072900
      6 C13          1.4100     0.0000     0.0000 cd         1 6BB       0.369200
      7 C14         -0.4110     0.0070     1.3030 cd         1 6BB      -0.097300
      8 C15          0.7130     0.0060     3.4810 ca         1 6BB       0.003800
      9 C16          1.9250     0.0040     4.1610 ca         1 6BB       0.138900
     10 C17          1.9400     0.0060     5.5430 ca         1 6BB      -0.151000
     11 C18          0.7510     0.0100     6.2490 ca         1 6BB      -0.116000
     12 C19         -0.4570     0.0120     5.5740 ca         1 6BB      -0.122000
     13 C20         -0.4780     0.0150     4.1930 ca         1 6BB      -0.137000
     14 C4          -2.7150    -0.8840    -2.4490 ca         1 6BB       0.380200
     15 N1          -2.4970    -0.0030    -3.4050 nb         1 6BB      -0.662000
     16 C5          -1.5210     0.8830    -3.3330 ca         1 6BB       0.333200
     17 C6          -0.6830     0.9240    -2.2320 ca         1 6BB       0.026800
     18 C7           0.4470     2.7480    -3.2580 c3         1 6BB       0.137400
     19 C8           1.6170     3.6990    -3.0000 c3         1 6BB      -0.070700
     20 C9           2.9260     2.9060    -2.9820 c3         1 6BB      -0.072900
     21 C10          4.0990     3.8690    -2.7830 c3         1 6BB       0.159800
     22 N2           4.1160     4.8520    -3.8740 n7         1 6BB      -0.820200
     23 N3           1.8160     0.0000     1.2420 nc         1 6BB      -0.491800
     24 N4           0.6930     0.0050     2.0790 na         1 6BB       0.152300
     25 F1           3.0880    -0.0000     3.4720 f          1 6BB      -0.110900
     26 H1          -2.1090    -1.6450    -0.5390 ha         1 6BB       0.143000
     27 H3           2.7830     6.1610    -2.9290 h1         1 6BB       0.033700
     28 H4           1.7800     4.2510    -5.0710 hc         1 6BB       0.052950
     29 H5           0.7740     5.3410    -4.1010 hc         1 6BB       0.052950
     30 H6           2.0460    -0.0030    -0.8770 h4         1 6BB       0.061100
     31 H7          -1.4320     0.1210     1.6470 h4         1 6BB       0.176000
     32 H8           2.8840     0.0050     6.0750 ha         1 6BB       0.153000
     33 H9           0.7650     0.0100     7.3320 ha         1 6BB       0.141000
     34 H10         -1.3870     0.0180     6.1300 ha         1 6BB       0.141000
     35 H11         -1.4240     0.0170     3.6660 ha         1 6BB       0.141000
     36 H12         -3.5280    -1.5930    -2.5510 h4         1 6BB       0.024100
     37 H13         -1.3800     1.5910    -4.1410 h4         1 6BB       0.027100
     38 H14          0.6300     2.1890    -4.1680 h1         1 6BB       0.038200
     39 H15         -0.4670     3.3200    -3.3640 h1         1 6BB       0.038200
     40 H16          1.4830     4.1940    -2.0460 hc         1 6BB       0.064700
     41 H17          2.9040     2.1920    -2.1670 hc         1 6BB       0.052950
     42 H18          3.0440     2.3840    -3.9240 hc         1 6BB       0.052950
     43 H19          3.9850     4.3840    -1.8370 h1         1 6BB       0.033700
     44 H20          5.0270     3.3120    -2.7870 h1         1 6BB       0.033700
     45 H21          4.9090     5.4530    -3.7700 hn         1 6BB       0.354800
     46 O1           0.3170     1.8420    -2.1610 os         1 6BB      -0.320900
     47 H2           2.9450     6.3900    -4.6790 h1         1 6BB       0.033700
@<TRIPOS>BOND
     1    12    11 ar
     2    12    13 ar
     3    11    10 ar
     4    13     8 ar
     5    10     9 ar
     6     8     9 ar
     7     8    24 1
     8     9    25 1
     9    23    24 1
    10    23     6 2
    11    24     7 1
    12     6     1 1
    13     7     1 2
    14     1     2 1
    15    21    20 1
    16    21    22 1
    17     2     3 ar
    18     2    17 ar
    19    20    19 1
    20    46    17 1
    21    46    18 1
    22     3    14 ar
    23    19    18 1
    24    19     5 1
    25    22     4 1
    26     4     5 1
    27    17    16 ar
    28    14    15 ar
    29    16    15 ar
    30     3    26 1
    31     4    47 1
    32     4    27 1
    33     5    28 1
    34     5    29 1
    35     6    30 1
    36     7    31 1
    37    10    32 1
    38    11    33 1
    39    12    34 1
    40    13    35 1
    41    14    36 1
    42    16    37 1
    43    18    38 1
    44    18    39 1
    45    19    40 1
    46    20    41 1
    47    20    42 1
    48    21    43 1
    49    21    44 1
    50    22    45 1
@<TRIPOS>SUBSTRUCTURE
     1 6BB         1 TEMP              0 ****  ****    0 ROOT
