@<TRIPOS>MOLECULE
molecule
   29    31     1     0     0
SMALL
bcc


@<TRIPOS>ATOM
      1 Cl17         0.0000     0.0000     0.0000 cl         1 6BC      -0.111000
      2 C16          1.7360     0.0000     0.0000 cc         1 6BC       0.593300
      3 N18          2.3940     0.0000     1.1420 nd         1 6BC      -0.678000
      4 C4           3.7270    -0.0000     1.1680 cd         1 6BC       0.467500
      5 C8           2.4320    -0.0090    -1.2100 cc         1 6BC      -0.219600
      6 C6           3.7980    -0.0090    -1.1960 cd         1 6BC       0.268800
      7 O7           4.4960    -0.0160    -2.3540 oh         1 6BC      -0.483100
      8 N5           4.4490    -0.0020     0.0070 na         1 6BC       0.004200
      9 N19          5.8080    -0.0030     0.3400 nd         1 6BC      -0.578100
     10 C20          5.9390    -0.0020     1.6400 cc         1 6BC       0.463500
     11 C1           4.6590     0.0010     2.2230 cc         1 6BC      -0.217300
     12 C2           4.3600     0.0020     3.6230 cg         1 6BC       0.248500
     13 N3           4.1390    -0.0060     4.7380 n1         1 6BC      -0.370800
     14 C9           1.6830    -0.0170    -2.5180 c3         1 6BC      -0.007800
     15 C10          1.3260    -1.4340    -2.8840 ca         1 6BC      -0.086300
     16 C15          0.1270    -1.9760    -2.4610 ca         1 6BC      -0.110000
     17 C14         -0.2000    -3.2760    -2.7960 ca         1 6BC      -0.147000
     18 C13          0.6720    -4.0340    -3.5550 ca         1 6BC      -0.162000
     19 C12          1.8700    -3.4930    -3.9800 ca         1 6BC      -0.147000
     20 C11          2.1960    -2.1900    -3.6480 ca         1 6BC      -0.110000
     21 H91C         0.6760     0.3190    -2.7340 hc         1 6BC       0.077700
     22 H92C         2.0910     0.3720    -3.4440 hc         1 6BC       0.077700
     23 H20          6.9320    -0.1260     2.0550 h4         1 6BC       0.076800
     24 H15         -0.8140    -1.6430    -2.0400 ha         1 6BC       0.141500
     25 H11          3.1130    -1.7330    -3.9990 ha         1 6BC       0.141500
     26 H14         -1.1300    -3.7260    -2.4670 ha         1 6BC       0.143000
     27 H13          0.4490    -5.0850    -3.6960 ha         1 6BC       0.126000
     28 H12          2.1080    -4.4050    -4.5130 ha         1 6BC       0.143000
     29 H7           5.0420     0.7450    -2.4650 ho         1 6BC       0.457000
@<TRIPOS>BOND
     1     1     2 1
     2     2     3 2
     3     2     5 1
     4     3     4 1
     5     4     8 1
     6     4    11 2
     7     5     6 2
     8     5    14 1
     9     6     7 1
    10     6     8 1
    11     8     9 1
    12     9    10 2
    13    10    11 1
    14    11    12 1
    15    12    13 3
    16    14    15 1
    17    15    16 ar
    18    15    20 ar
    19    16    17 ar
    20    17    18 ar
    21    18    19 ar
    22    19    20 ar
    23    14    21 1
    24    14    22 1
    25    10    23 1
    26    16    24 1
    27    20    25 1
    28    17    26 1
    29    18    27 1
    30    19    28 1
    31     7    29 1
@<TRIPOS>SUBSTRUCTURE
     1 6BC         1 TEMP              0 ****  ****    0 ROOT
