@<TRIPOS>MOLECULE
molecule
   35    37     1     0     0
SMALL
bcc


@<TRIPOS>ATOM
      1 CAQ          0.0000     0.0000     0.0000 ca         1 6BD      -0.123900
      2 CAH          1.3910     0.0000     0.0000 ca         1 6BD      -0.083500
      3 CAD          2.0790     0.0000     1.1970 ca         1 6BD      -0.134500
      4 CAF          1.3920    -0.0010     2.3990 ca         1 6BD      -0.132500
      5 CAJ          0.0110    -0.0000     2.4150 ca         1 6BD      -0.115500
      6 CAS         -0.6990     0.0000     1.2170 cp         1 6BD      -0.037500
      7 CAT         -2.1530    -0.0000     0.9300 cp         1 6BD      -0.037500
      8 CAK         -3.2650     0.0000     1.7670 ca         1 6BD      -0.115500
      9 CAG         -4.5360     0.0010     1.2280 ca         1 6BD      -0.132500
     10 CAE         -4.7160     0.0010    -0.1450 ca         1 6BD      -0.134500
     11 CAI         -3.6240     0.0000    -0.9900 ca         1 6BD      -0.083500
     12 CAR         -2.3380     0.0000    -0.4620 ca         1 6BD      -0.123900
     13 CAP         -0.9970     0.0060    -1.0960 cc         1 6BD       0.434500
     14 NAM         -0.7460     0.0080    -2.3730 n2         1 6BD      -0.375200
     15 OAN         -1.8110     0.0140    -3.3050 os         1 6BD      -0.204300
     16 CAL         -1.3890     0.0170    -4.6710 c3         1 6BD       0.149400
     17 CAU         -2.6170     0.0230    -5.5840 c3         1 6BD      -0.172700
     18 CAA         -3.3940    -1.2820    -5.4020 c3         1 6BD      -0.071100
     19 CAO         -2.1740     0.1490    -7.0190 c          1 6BD       0.900600
     20 OAC         -0.9980     0.2260    -7.2840 o          1 6BD      -0.843300
     21 OAB         -3.0870     0.1760    -8.0030 o          1 6BD      -0.843300
     22 HAH          1.9330     0.0000    -0.9380 ha         1 6BD       0.157000
     23 HAD          3.1630    -0.0000     1.1960 ha         1 6BD       0.129000
     24 HAF          1.9410    -0.0010     3.3330 ha         1 6BD       0.121500
     25 HAJ         -0.5200    -0.0010     3.3600 ha         1 6BD       0.123000
     26 HAK         -3.1340     0.0000     2.8430 ha         1 6BD       0.123000
     27 HAG         -5.3990     0.0020     1.8830 ha         1 6BD       0.121500
     28 HAE         -5.7170     0.0020    -0.5580 ha         1 6BD       0.129000
     29 HAI         -3.7690     0.0000    -2.0640 ha         1 6BD       0.157000
     30 HAL         -0.7920     0.9010    -4.8630 h1         1 6BD       0.048700
     31 HALA        -0.7970    -0.8680    -4.8680 h1         1 6BD       0.048700
     32 HAU         -3.2530     0.8610    -5.3270 hc         1 6BD       0.048700
     33 HAA         -4.3600    -1.0680    -4.9610 hc         1 6BD       0.024033
     34 HAAA        -2.8390    -1.9460    -4.7510 hc         1 6BD       0.024033
     35 HAAB        -3.5350    -1.7560    -6.3660 hc         1 6BD       0.024033
@<TRIPOS>BOND
     1     1     6 ar
     2     2     1 ar
     3     2     3 ar
     4     2    22 1
     5     3     4 ar
     6     3    23 1
     7     4     5 ar
     8     4    24 1
     9     5    25 1
    10     6     5 ar
    11     7     6 1
    12     7     8 ar
    13     8    26 1
    14     9     8 ar
    15     9    27 1
    16    10     9 ar
    17    10    28 1
    18    11    10 ar
    19    11    12 ar
    20    11    29 1
    21    12     7 ar
    22    13     1 1
    23    13    12 1
    24    14    13 2
    25    15    14 1
    26    16    15 1
    27    16    30 1
    28    16    31 1
    29    17    16 1
    30    17    19 1
    31    17    32 1
    32    18    17 1
    33    18    33 1
    34    18    34 1
    35    18    35 1
    36    19    21 1
    37    20    19 1
@<TRIPOS>SUBSTRUCTURE
     1 6BD         1 TEMP              0 ****  ****    0 ROOT
