@<TRIPOS>MOLECULE
6BE
   58    61     1     0     0
SMALL
bcc


@<TRIPOS>ATOM
      1 C1           0.0000     0.0000     0.0000 ca         1 6BE       0.358200
      2 C2           2.0190     0.0000     1.1190 ca         1 6BE       0.297200
      3 C3           1.3870    -0.0020     2.3500 ca         1 6BE       0.038800
      4 O1           2.1130    -0.0020     3.4990 os         1 6BE      -0.290900
      5 C11         -4.8480     2.8320     6.2200 ca         1 6BE      -0.132500
      6 C12         -5.1360     2.3990     7.5090 ca         1 6BE       0.025600
      7 C13         -4.4230     1.3410     8.0610 ca         1 6BE      -0.132500
      8 C14         -3.4280     0.7230     7.3290 ca         1 6BE      -0.076000
      9 C15         -5.8910     4.4680     8.3630 c3         1 6BE       0.135300
     10 C16         -7.0520     5.1290     9.1100 c3         1 6BE       0.153300
     11 C17         -7.4400     3.0710    10.3250 c3         1 6BE       0.153300
     12 C18         -6.2780     2.4100     9.5770 c3         1 6BE       0.135300
     13 C19         -8.2460     5.1730    11.2170 c3         1 6BE       0.190100
     14 C20          3.5360     0.0000     3.3670 c3         1 6BE       0.197400
     15 C21          4.1770    -0.0000     4.7570 c3         1 6BE      -0.058700
     16 C22          5.6950    -0.1240     4.6180 c3         1 6BE       0.007400
     17 C23          3.8350     1.3060     5.4760 c3         1 6BE       0.007400
     18 N1           1.3180     0.0000     0.0000 nb         1 6BE      -0.550000
     19 C4          -0.0150     0.0070     2.3940 ca         1 6BE       0.010000
     20 C5          -0.7110     0.0030     1.1830 ca         1 6BE      -0.185300
     21 C6          -0.7380     0.0120     3.6880 cc         1 6BE      -0.259300
     22 C7          -1.7500     0.8560     4.0450 cd         1 6BE      -0.260300
     23 N2          -2.1300     0.5290     5.2990 na         1 6BE       0.645300
     24 N3          -1.3390    -0.5420     5.7310 nd         1 6BE      -0.668800
     25 C8          -0.5100    -0.8590     4.7730 cc         1 6BE       0.427200
     26 C9          -3.1410     1.1570     6.0420 ca         1 6BE      -0.177200
     27 C10         -3.8530     2.2130     5.4890 ca         1 6BE      -0.076000
     28 N4          -6.1420     3.0240     8.2490 nh         1 6BE      -0.361000
     29 N5          -7.1880     4.5150    10.4390 n3         1 6BE      -0.549600
     30 H1          -0.5330    -0.0020    -0.9430 h4         1 6BE      -0.018900
     31 H2           3.1010     0.0000     1.0730 h4         1 6BE      -0.005900
     32 H3          -5.4040     3.6560     5.7900 ha         1 6BE       0.123000
     33 H4          -4.6460     1.0030     9.0650 ha         1 6BE       0.123000
     34 H5          -2.8720    -0.1020     7.7590 ha         1 6BE       0.122500
     35 H6          -5.8090     4.8990     7.3720 h1         1 6BE       0.025200
     36 H7          -4.9710     4.6320     8.9110 h1         1 6BE       0.025200
     37 H8          -7.9680     4.9840     8.5510 h1         1 6BE       0.016450
     38 H9          -6.8530     6.1880     9.2210 h1         1 6BE       0.016450
     39 H10         -7.5210     2.6410    11.3160 h1         1 6BE       0.016450
     40 H11         -8.3600     2.9080     9.7770 h1         1 6BE       0.016450
     41 H12         -6.4780     1.3520     9.4650 h1         1 6BE       0.025200
     42 H13         -5.3620     2.5540    10.1360 h1         1 6BE       0.025200
     43 H14         -9.1920     5.0680    10.7010 h1         1 6BE       0.001367
     44 H15         -8.0100     6.2250    11.3280 h1         1 6BE       0.001367
     45 H16         -8.3140     4.7140    12.1950 h1         1 6BE       0.001367
     46 H17          3.8490    -0.8830     2.8240 h1         1 6BE       0.005700
     47 H18          3.8470     0.8860     2.8260 h1         1 6BE       0.005700
     48 H19          3.7970    -0.8380     5.3290 hc         1 6BE       0.035700
     49 H20          6.1490    -0.1190     5.6010 hc         1 6BE       0.006033
     50 H21          6.0750     0.7100     4.0410 hc         1 6BE       0.006033
     51 H22          5.9370    -1.0520     4.1130 hc         1 6BE       0.006033
     52 H23          2.8490     1.2270     5.9180 hc         1 6BE       0.006033
     53 H24          3.8470     2.1230     4.7650 hc         1 6BE       0.006033
     54 H25          4.5660     1.4920     6.2530 hc         1 6BE       0.006033
     55 H26         -1.7940     0.0070     1.1720 ha         1 6BE       0.116000
     56 H27         -2.1710     1.6450     3.4340 h4         1 6BE       0.153000
     57 H28          0.2300    -1.6500     4.8080 h4         1 6BE       0.011100
     58 H29         -3.6290     2.5520     4.4850 ha         1 6BE       0.122500
@<TRIPOS>BOND
     1     1    18 ar  
     2     1    20 ar  
     3     1    30 1   
     4     2     3 ar  
     5     2    18 ar  
     6     2    31 1   
     7     3     4 1   
     8     3    19 ar  
     9     4    14 1   
    10     5     6 ar  
    11     5    27 ar  
    12     5    32 1   
    13     6     7 ar  
    14     6    28 1   
    15     7     8 ar  
    16     7    33 1   
    17     8    26 ar  
    18     8    34 1   
    19     9    10 1   
    20     9    28 1   
    21     9    35 1   
    22     9    36 1   
    23    10    29 1   
    24    10    37 1   
    25    10    38 1   
    26    11    12 1   
    27    11    29 1   
    28    11    39 1   
    29    11    40 1   
    30    12    28 1   
    31    12    41 1   
    32    12    42 1   
    33    13    29 1   
    34    13    43 1   
    35    13    44 1   
    36    13    45 1   
    37    14    15 1   
    38    14    46 1   
    39    14    47 1   
    40    15    16 1   
    41    15    17 1   
    42    15    48 1   
    43    16    49 1   
    44    16    50 1   
    45    16    51 1   
    46    17    52 1   
    47    17    53 1   
    48    17    54 1   
    49    19    20 ar  
    50    19    21 1   
    51    20    55 1   
    52    21    22 2   
    53    21    25 1   
    54    22    23 1   
    55    22    56 1   
    56    23    24 1   
    57    23    26 1   
    58    24    25 2   
    59    25    57 1   
    60    26    27 ar  
    61    27    58 1   
@<TRIPOS>SUBSTRUCTURE
     1 6BE         1 TEMP              0 ****  ****    0 ROOT
