@<TRIPOS>MOLECULE
molecule
   58    61     1     0     0
SMALL
bcc


@<TRIPOS>ATOM
      1 C1           0.0000     0.0000     0.0000 ca         1 6BE       0.380200
      2 C2           2.0190     0.0000     1.1190 ca         1 6BE       0.332200
      3 C3           1.3870    -0.0020     2.3500 ca         1 6BE       0.025800
      4 O1           2.1130    -0.0020     3.4990 os         1 6BE      -0.318900
      5 C11         -4.8480     2.8320     6.2200 ca         1 6BE      -0.149000
      6 C12         -5.1360     2.3990     7.5090 ca         1 6BE       0.096600
      7 C13         -4.4230     1.3410     8.0610 ca         1 6BE      -0.149000
      8 C14         -3.4280     0.7230     7.3290 ca         1 6BE      -0.117500
      9 C15         -5.8910     4.4680     8.3630 c3         1 6BE       0.164300
     10 C16         -7.0520     5.1290     9.1100 c3         1 6BE       0.160300
     11 C17         -7.4400     3.0710    10.3250 c3         1 6BE       0.160300
     12 C18         -6.2780     2.4100     9.5770 c3         1 6BE       0.164300
     13 C19         -8.2460     5.1730    11.2170 c3         1 6BE       0.153100
     14 C20          3.5360     0.0000     3.3670 c3         1 6BE       0.137400
     15 C21          4.1770    -0.0000     4.7570 c3         1 6BE      -0.074700
     16 C22          5.6950    -0.1240     4.6180 c3         1 6BE      -0.087100
     17 C23          3.8350     1.3060     5.4760 c3         1 6BE      -0.087100
     18 N1           1.3180     0.0000     0.0000 nb         1 6BE      -0.663000
     19 C4          -0.0150     0.0070     2.3940 ca         1 6BE       0.007000
     20 C5          -0.7110     0.0030     1.1830 ca         1 6BE      -0.217300
     21 C6          -0.7380     0.0120     3.6880 cc         1 6BE      -0.257300
     22 C7          -1.7500     0.8560     4.0450 cd         1 6BE      -0.094300
     23 N2          -2.1300     0.5290     5.2990 na         1 6BE       0.158300
     24 N3          -1.3390    -0.5420     5.7310 nc         1 6BE      -0.513800
     25 C8          -0.5100    -0.8590     4.7730 cd         1 6BE       0.370200
     26 C9          -3.1410     1.1570     6.0420 ca         1 6BE       0.008800
     27 C10         -3.8530     2.2130     5.4890 ca         1 6BE      -0.117500
     28 N4          -6.1420     3.0240     8.2490 nh         1 6BE      -0.597000
     29 N5          -7.1880     4.5150    10.4390 n3         1 6BE      -0.733600
     30 H1          -0.5330    -0.0020    -0.9430 h4         1 6BE       0.023100
     31 H2           3.1010     0.0000     1.0730 h4         1 6BE       0.026100
     32 H3          -5.4040     3.6560     5.7900 ha         1 6BE       0.144000
     33 H4          -4.6460     1.0030     9.0650 ha         1 6BE       0.144000
     34 H5          -2.8720    -0.1020     7.7590 ha         1 6BE       0.147500
     35 H6          -5.8090     4.8990     7.3720 h1         1 6BE       0.050450
     36 H7          -4.9710     4.6320     8.9110 h1         1 6BE       0.050450
     37 H8          -7.9680     4.9840     8.5510 h1         1 6BE       0.043950
     38 H9          -6.8530     6.1880     9.2210 h1         1 6BE       0.043950
     39 H10         -7.5210     2.6410    11.3160 h1         1 6BE       0.043950
     40 H11         -8.3600     2.9080     9.7770 h1         1 6BE       0.043950
     41 H12         -6.4780     1.3520     9.4650 h1         1 6BE       0.050450
     42 H13         -5.3620     2.5540    10.1360 h1         1 6BE       0.050450
     43 H14         -9.1920     5.0680    10.7010 h1         1 6BE       0.033700
     44 H15         -8.0100     6.2250    11.3280 h1         1 6BE       0.033700
     45 H16         -8.3140     4.7140    12.1950 h1         1 6BE       0.033700
     46 H17          3.8490    -0.8830     2.8240 h1         1 6BE       0.037200
     47 H18          3.8470     0.8860     2.8260 h1         1 6BE       0.037200
     48 H19          3.7970    -0.8380     5.3290 hc         1 6BE       0.063700
     49 H20          6.1490    -0.1190     5.6010 hc         1 6BE       0.039033
     50 H21          6.0750     0.7100     4.0410 hc         1 6BE       0.039033
     51 H22          5.9370    -1.0520     4.1130 hc         1 6BE       0.039033
     52 H23          2.8490     1.2270     5.9180 hc         1 6BE       0.039033
     53 H24          3.8470     2.1230     4.7650 hc         1 6BE       0.039033
     54 H25          4.5660     1.4920     6.2530 hc         1 6BE       0.039033
     55 H26         -1.7940     0.0070     1.1720 ha         1 6BE       0.143000
     56 H27         -2.1710     1.6450     3.4340 h4         1 6BE       0.176000
     57 H28          0.2300    -1.6500     4.8080 h4         1 6BE       0.059100
     58 H29         -3.6290     2.5520     4.4850 ha         1 6BE       0.147500
@<TRIPOS>BOND
     1    13    29 1   
     2    11    29 1   
     3    11    12 1   
     4    29    10 1   
     5    12    28 1   
     6    10     9 1   
     7    28     9 1   
     8    28     6 1   
     9     5     6 ar  
    10     5    27 ar  
    11     6     7 ar  
    12    27    26 ar  
    13     7     8 ar  
    14    26     8 ar  
    15    26    23 1   
    16    23    24 1   
    17    23    22 1   
    18    24    25 2   
    19    22    21 2   
    20    25    21 1   
    21    21    19 1   
    22    16    15 1   
    23    17    15 1   
    24    19    20 ar  
    25    19     3 ar  
    26     4     3 1   
    27     4    14 1   
    28    15    14 1   
    29    20     1 ar  
    30     3     2 ar  
    31     1    18 ar  
    32     2    18 ar  
    33     1    30 1   
    34     2    31 1   
    35     5    32 1   
    36     7    33 1   
    37     8    34 1   
    38     9    35 1   
    39     9    36 1   
    40    10    37 1   
    41    10    38 1   
    42    11    39 1   
    43    11    40 1   
    44    12    41 1   
    45    12    42 1   
    46    13    43 1   
    47    13    44 1   
    48    13    45 1   
    49    14    46 1   
    50    14    47 1   
    51    15    48 1   
    52    16    49 1   
    53    16    50 1   
    54    16    51 1   
    55    17    52 1   
    56    17    53 1   
    57    17    54 1   
    58    20    55 1   
    59    22    56 1   
    60    25    57 1   
    61    27    58 1   
@<TRIPOS>SUBSTRUCTURE
     1 6BE         1 TEMP              0 ****  ****    0 ROOT
