@<TRIPOS>MOLECULE
molecule
   64    68     1     0     0
SMALL
bcc


@<TRIPOS>ATOM
      1 C1           0.0000     0.0000     0.0000 ca         1 6BF       0.379200
      2 C2           2.0200     0.0000     1.1190 ca         1 6BF       0.333200
      3 C3           1.3880     0.0010     2.3500 ca         1 6BF       0.025800
      4 O1           2.1150     0.0020     3.4980 os         1 6BF      -0.320900
      5 C11         -4.8390     2.8480     6.2220 ca         1 6BF      -0.135500
      6 C12         -5.1330     2.4090     7.5050 ca         1 6BF       0.090600
      7 C13         -4.4260     1.3470     8.0560 ca         1 6BF      -0.135500
      8 C14         -3.4300     0.7300     7.3260 ca         1 6BF      -0.123500
      9 C15         -5.8490     4.6840     8.2790 c3         1 6BF       0.164800
     10 C16         -7.0060     5.3690     9.0100 c3         1 6BF       0.161300
     11 C17         -7.4300     3.3330    10.2470 c3         1 6BF       0.161300
     12 C18         -6.2730     2.6470     9.5160 c3         1 6BF       0.164800
     13 C19         -8.2120     5.4570    11.1080 c3         1 6BF       0.153100
     14 C20          3.8450     1.3150     5.4720 c3         1 6BF      -0.073400
     15 C21          4.5400     1.3370     6.8360 c3         1 6BF       0.159300
     16 C22          6.3400    -0.0580     6.0060 c3         1 6BF       0.159300
     17 C23          5.6990    -0.1220     4.6180 c3         1 6BF      -0.073400
     18 C24          4.1800     0.0040     4.7550 c3         1 6BF      -0.070700
     19 C25          3.5380     0.0020     3.3660 c3         1 6BF       0.137400
     20 N1           1.3200     0.0000     0.0000 nb         1 6BF      -0.662000
     21 C4          -0.0130     0.0110     2.3930 ca         1 6BF       0.005000
     22 C5          -0.7100     0.0050     1.1830 ca         1 6BF      -0.216300
     23 C6          -1.7470     0.8620     4.0450 cc         1 6BF      -0.093300
     24 C7          -0.7350     0.0170     3.6890 cd         1 6BF      -0.256300
     25 C8          -0.5040    -0.8490     4.7750 cd         1 6BF       0.371200
     26 N2          -1.3370    -0.5340     5.7320 nc         1 6BF      -0.514800
     27 N3          -2.1240     0.5410     5.3010 na         1 6BF       0.158300
     28 C9          -3.1360     1.1690     6.0430 ca         1 6BF       0.015800
     29 C10         -3.8430     2.2300     5.4920 ca         1 6BF      -0.123500
     30 N4          -6.1190     3.2430     8.1810 nh         1 6BF      -0.607000
     31 N5          -7.1590     4.7740    10.3450 n3         1 6BF      -0.733600
     32 N6           5.9920     1.2150     6.6500 n7         1 6BF      -0.820200
     33 H1          -0.5340    -0.0020    -0.9430 h4         1 6BF       0.024100
     34 H2           3.1030    -0.0000     1.0720 h4         1 6BF       0.026100
     35 H3          -5.3900     3.6760     5.7930 ha         1 6BF       0.144000
     36 H4          -4.6550     1.0040     9.0580 ha         1 6BF       0.144000
     37 H5          -2.8780    -0.0980     7.7550 ha         1 6BF       0.148500
     38 H6          -4.9300     4.8420     8.8310 h1         1 6BF       0.047950
     39 H7          -5.7550     5.1010     7.2830 h1         1 6BF       0.047950
     40 H8          -7.9200     5.2310     8.4470 h1         1 6BF       0.043450
     41 H9          -6.7930     6.4270     9.1100 h1         1 6BF       0.043450
     42 H10         -8.3490     3.1760     9.6950 h1         1 6BF       0.043450
     43 H11         -7.5250     2.9170    11.2430 h1         1 6BF       0.043450
     44 H12         -6.4860     1.5900     9.4160 h1         1 6BF       0.047950
     45 H13         -5.3580     2.7860    10.0800 h1         1 6BF       0.047950
     46 H14         -7.9710     6.5100    11.1930 h1         1 6BF       0.033033
     47 H15         -8.2810     5.0220    12.0980 h1         1 6BF       0.033033
     48 H16         -9.1600     5.3440    10.5970 h1         1 6BF       0.033033
     49 H18          4.1940     2.1500     4.8760 hc         1 6BF       0.053950
     50 H19          4.3190     2.2720     7.3370 h1         1 6BF       0.032950
     51 H20          4.1840     0.5070     7.4340 h1         1 6BF       0.032950
     52 H21          5.9710    -0.8780     6.6100 h1         1 6BF       0.032950
     53 H22          7.4160    -0.1290     5.9090 h1         1 6BF       0.032950
     54 H23          5.9420    -1.0690     4.1520 hc         1 6BF       0.053950
     55 H24          6.0740     0.6930     4.0100 hc         1 6BF       0.053950
     56 H25          3.8010    -0.8290     5.3350 hc         1 6BF       0.061700
     57 H26          3.8500     0.8860     2.8230 h1         1 6BF       0.038700
     58 H27          3.8500    -0.8830     2.8260 h1         1 6BF       0.038700
     59 H28         -1.7930     0.0090     1.1740 ha         1 6BF       0.143000
     60 H29         -2.1650     1.6520     3.4340 h4         1 6BF       0.176000
     61 H30          0.2340    -1.6420     4.8110 h4         1 6BF       0.059100
     62 H31         -3.6130     2.5720     4.4910 ha         1 6BF       0.148500
     63 H33          6.4490     1.2760     7.5380 hn         1 6BF       0.353800
     64 H17          2.7740     1.3860     5.6130 hc         1 6BF       0.053950
@<TRIPOS>BOND
     1    13    31 1
     2    11    31 1
     3    11    12 1
     4    31    10 1
     5    10     9 1
     6    12    30 1
     7    30     9 1
     8    30     6 1
     9     5     6 ar
    10     5    29 ar
    11     6     7 ar
    12    29    28 ar
    13     7     8 ar
    14    28     8 ar
    15    28    27 1
    16    27    26 1
    17    27    23 1
    18    26    25 2
    19    23    24 2
    20    25    24 1
    21    24    21 1
    22    16    17 1
    23    16    32 1
    24    21    22 ar
    25    21     3 ar
    26    17    18 1
    27    32    15 1
    28     4     3 1
    29     4    19 1
    30    18    19 1
    31    18    14 1
    32    15    14 1
    33    22     1 ar
    34     3     2 ar
    35     1    20 ar
    36     2    20 ar
    37     1    33 1
    38     2    34 1
    39     5    35 1
    40     7    36 1
    41     8    37 1
    42     9    38 1
    43     9    39 1
    44    10    40 1
    45    10    41 1
    46    11    42 1
    47    11    43 1
    48    12    44 1
    49    12    45 1
    50    13    46 1
    51    13    47 1
    52    13    48 1
    53    14    64 1
    54    14    49 1
    55    15    50 1
    56    15    51 1
    57    16    52 1
    58    16    53 1
    59    17    54 1
    60    17    55 1
    61    18    56 1
    62    19    57 1
    63    19    58 1
    64    22    59 1
    65    23    60 1
    66    25    61 1
    67    29    62 1
    68    32    63 1
@<TRIPOS>SUBSTRUCTURE
     1 6BF         1 TEMP              0 ****  ****    0 ROOT
