@<TRIPOS>MOLECULE
6BF
   64    68     1     0     0
SMALL
bcc


@<TRIPOS>ATOM
      1 C1           0.0000     0.0000     0.0000 ca         1 6BF       0.359200
      2 C2           2.0200     0.0000     1.1190 ca         1 6BF       0.298200
      3 C3           1.3880     0.0010     2.3500 ca         1 6BF       0.038800
      4 O1           2.1150     0.0020     3.4980 os         1 6BF      -0.292900
      5 C11         -4.8390     2.8480     6.2220 ca         1 6BF      -0.116500
      6 C12         -5.1330     2.4090     7.5050 ca         1 6BF       0.025600
      7 C13         -4.4260     1.3470     8.0560 ca         1 6BF      -0.116500
      8 C14         -3.4300     0.7300     7.3260 ca         1 6BF      -0.084000
      9 C15         -5.8490     4.6840     8.2790 c3         1 6BF       0.141800
     10 C16         -7.0060     5.3690     9.0100 c3         1 6BF       0.153300
     11 C17         -7.4300     3.3330    10.2470 c3         1 6BF       0.153300
     12 C18         -6.2730     2.6470     9.5160 c3         1 6BF       0.141800
     13 C19         -8.2120     5.4570    11.1080 c3         1 6BF       0.189100
     14 C20          3.8450     1.3150     5.4720 c3         1 6BF      -0.022400
     15 C21          4.5400     1.3370     6.8360 c3         1 6BF       0.149300
     16 C22          6.3400    -0.0580     6.0060 c3         1 6BF       0.149300
     17 C23          5.6990    -0.1220     4.6180 c3         1 6BF      -0.022400
     18 C24          4.1800     0.0040     4.7550 c3         1 6BF      -0.057700
     19 C25          3.5380     0.0020     3.3660 c3         1 6BF       0.199400
     20 N1           1.3200     0.0000     0.0000 nb         1 6BF      -0.550000
     21 C4          -0.0130     0.0110     2.3930 ca         1 6BF       0.008000
     22 C5          -0.7100     0.0050     1.1830 ca         1 6BF      -0.184300
     23 C6          -1.7470     0.8620     4.0450 cc         1 6BF      -0.259300
     24 C7          -0.7350     0.0170     3.6890 cd         1 6BF      -0.258300
     25 C8          -0.5040    -0.8490     4.7750 cd         1 6BF       0.427200
     26 N2          -1.3370    -0.5340     5.7320 nc         1 6BF      -0.670800
     27 N3          -2.1240     0.5410     5.3010 na         1 6BF       0.644300
     28 C9          -3.1360     1.1690     6.0430 ca         1 6BF      -0.169200
     29 C10         -3.8430     2.2300     5.4920 ca         1 6BF      -0.084000
     30 N4          -6.1190     3.2430     8.1810 nh         1 6BF      -0.385000
     31 N5          -7.1590     4.7740    10.3450 n3         1 6BF      -0.549600
     32 N6           5.9920     1.2150     6.6500 n7         1 6BF      -0.581200
     33 H1          -0.5340    -0.0020    -0.9430 h4         1 6BF      -0.018900
     34 H2           3.1030    -0.0000     1.0720 h4         1 6BF      -0.005900
     35 H3          -5.3900     3.6760     5.7930 ha         1 6BF       0.121500
     36 H4          -4.6550     1.0040     9.0580 ha         1 6BF       0.121500
     37 H5          -2.8780    -0.0980     7.7550 ha         1 6BF       0.123500
     38 H6          -4.9300     4.8420     8.8310 h1         1 6BF       0.022450
     39 H7          -5.7550     5.1010     7.2830 h1         1 6BF       0.022450
     40 H8          -7.9200     5.2310     8.4470 h1         1 6BF       0.015700
     41 H9          -6.7930     6.4270     9.1100 h1         1 6BF       0.015700
     42 H10         -8.3490     3.1760     9.6950 h1         1 6BF       0.015700
     43 H11         -7.5250     2.9170    11.2430 h1         1 6BF       0.015700
     44 H12         -6.4860     1.5900     9.4160 h1         1 6BF       0.022450
     45 H13         -5.3580     2.7860    10.0800 h1         1 6BF       0.022450
     46 H14         -7.9710     6.5100    11.1930 h1         1 6BF       0.001033
     47 H15         -8.2810     5.0220    12.0980 h1         1 6BF       0.001033
     48 H16         -9.1600     5.3440    10.5970 h1         1 6BF       0.001033
     49 H18          4.1940     2.1500     4.8760 hc         1 6BF       0.024700
     50 H19          4.3190     2.2720     7.3370 h1         1 6BF       0.005950
     51 H20          4.1840     0.5070     7.4340 h1         1 6BF       0.005950
     52 H21          5.9710    -0.8780     6.6100 h1         1 6BF       0.005950
     53 H22          7.4160    -0.1290     5.9090 h1         1 6BF       0.005950
     54 H23          5.9420    -1.0690     4.1520 hc         1 6BF       0.024700
     55 H24          6.0740     0.6930     4.0100 hc         1 6BF       0.024700
     56 H25          3.8010    -0.8290     5.3350 hc         1 6BF       0.036700
     57 H26          3.8500     0.8860     2.8230 h1         1 6BF       0.006200
     58 H27          3.8500    -0.8830     2.8260 h1         1 6BF       0.006200
     59 H28         -1.7930     0.0090     1.1740 ha         1 6BF       0.116000
     60 H29         -2.1650     1.6520     3.4340 h4         1 6BF       0.153000
     61 H30          0.2340    -1.6420     4.8110 h4         1 6BF       0.011100
     62 H31         -3.6130     2.5720     4.4910 ha         1 6BF       0.123500
     63 H33          6.4490     1.2760     7.5380 hn         1 6BF       0.250800
     64 H17          2.7740     1.3860     5.6130 hc         1 6BF       0.024700
@<TRIPOS>BOND
     1     1    20 ar  
     2     1    22 ar  
     3     1    33 1   
     4     2     3 ar  
     5     2    20 ar  
     6     2    34 1   
     7     3     4 1   
     8     3    21 ar  
     9     4    19 1   
    10     5     6 ar  
    11     5    29 ar  
    12     5    35 1   
    13     6     7 ar  
    14     6    30 1   
    15     7     8 ar  
    16     7    36 1   
    17     8    28 ar  
    18     8    37 1   
    19     9    10 1   
    20     9    30 1   
    21     9    38 1   
    22     9    39 1   
    23    10    31 1   
    24    10    40 1   
    25    10    41 1   
    26    11    12 1   
    27    11    31 1   
    28    11    42 1   
    29    11    43 1   
    30    12    30 1   
    31    12    44 1   
    32    12    45 1   
    33    13    31 1   
    34    13    46 1   
    35    13    47 1   
    36    13    48 1   
    37    14    15 1   
    38    14    18 1   
    39    14    49 1   
    40    14    64 1   
    41    15    32 1   
    42    15    50 1   
    43    15    51 1   
    44    16    17 1   
    45    16    32 1   
    46    16    52 1   
    47    16    53 1   
    48    17    18 1   
    49    17    54 1   
    50    17    55 1   
    51    18    19 1   
    52    18    56 1   
    53    19    57 1   
    54    19    58 1   
    55    21    22 ar  
    56    21    24 1   
    57    22    59 1   
    58    23    24 2   
    59    23    27 1   
    60    23    60 1   
    61    24    25 1   
    62    25    26 2   
    63    25    61 1   
    64    26    27 1   
    65    27    28 1   
    66    28    29 ar  
    67    29    62 1   
    68    32    63 1   
@<TRIPOS>SUBSTRUCTURE
     1 6BF         1 TEMP              0 ****  ****    0 ROOT
