@<TRIPOS>MOLECULE
molecule
   23    23     1     0     0
SMALL
bcc


@<TRIPOS>ATOM
      1 Br6          0.0000     0.0000     0.0000 br         1 6BG      -0.163400
      2 C6           1.9660     0.0000     0.0000 c3         1 6BG       0.011000
      3 C5           2.4760     0.0000     1.4430 c3         1 6BG       0.150100
      4 O5           2.0980    -1.2210     2.0810 os         1 6BG      -0.436600
      5 C1           2.5050    -1.3140     3.4480 c3         1 6BG       0.337900
      6 O1           2.0560    -2.5550     3.9950 oh         1 6BG      -0.576800
      7 C4           4.0020     0.1240     1.4440 c3         1 6BG       0.103100
      8 O4           4.3810     1.3700     0.8560 oh         1 6BG      -0.600800
      9 C3           4.5100     0.0630     2.8880 c3         1 6BG       0.122100
     10 O3           5.9390     0.1040     2.8940 oh         1 6BG      -0.599800
     11 C2           4.0320    -1.2420     3.5300 c3         1 6BG       0.115100
     12 O2           4.4390    -1.2780     4.9000 oh         1 6BG      -0.594800
     13 H1           2.3280     0.8850    -0.5110 h1         1 6BG       0.087200
     14 H2           2.3280    -0.8850    -0.5110 h1         1 6BG       0.087200
     15 H3           2.0480     0.8360     1.9820 h1         1 6BG       0.063700
     16 H4           2.0760    -0.4920     4.0070 h2         1 6BG       0.038700
     17 H5           1.1440    -2.4860     4.2240 ho         1 6BG       0.418000
     18 H6           4.4300    -0.6940     0.8770 h1         1 6BG       0.060700
     19 H7           5.0890     1.2290     0.2500 ho         1 6BG       0.416000
     20 H8           4.1160     0.9050     3.4450 h1         1 6BG       0.059700
     21 H9           6.2300     0.8410     3.4060 ho         1 6BG       0.417000
     22 H10          4.4620    -2.0830     2.9990 h1         1 6BG       0.068700
     23 H11          4.9480    -2.0560     5.0570 ho         1 6BG       0.418000
@<TRIPOS>BOND
     1    10     9 1
     2    12    11 1
     3     9    11 1
     4     9     7 1
     5     8     7 1
     6    11     5 1
     7     7     3 1
     8     5     6 1
     9     5     4 1
    10     3     4 1
    11     3     2 1
    12     2     1 1
    13     2    13 1
    14     2    14 1
    15     3    15 1
    16     5    16 1
    17     6    17 1
    18     7    18 1
    19     8    19 1
    20     9    20 1
    21    10    21 1
    22    11    22 1
    23    12    23 1
@<TRIPOS>SUBSTRUCTURE
     1 6BG         1 TEMP              0 ****  ****    0 ROOT
