@<TRIPOS>MOLECULE
6BG
   23    23     1     0     0
SMALL
bcc


@<TRIPOS>ATOM
      1 BR6        -0.0650    0.2550    0.0230 br        1 6BG     -0.158400
      2 C6          1.8220   -0.1160    0.0930 c3        1 6BG     -0.014000
      3 C5          2.4290    0.0030    1.4800 c3        1 6BG      0.160100
      4 O5          2.1020   -1.2010    2.1800 os        1 6BG     -0.450600
      5 C1          2.6060   -1.2400    3.5070 c3        1 6BG      0.314900
      6 O1          2.2470   -2.5260    3.9460 oh        1 6BG     -0.608800
      7 C4          3.9630    0.1370    1.3790 c3        1 6BG      0.116100
      8 O4          4.2290    1.3630    0.7220 oh        1 6BG     -0.597800
      9 C3          4.5760    0.1360    2.7890 c3        1 6BG      0.108100
     10 O3          5.9820    0.1700    2.6130 oh        1 6BG     -0.606800
     11 C2          4.1430   -1.1310    3.5390 c3        1 6BG      0.080100
     12 O2          4.6060   -0.9940    4.8700 oh        1 6BG     -0.602800
     13 H1          1.9620   -1.1480   -0.3020 h1        1 6BG      0.096700
     14 H2          2.3200    0.6250   -0.5790 h1        1 6BG      0.096700
     15 H3          2.0150    0.8880    2.0380 h1        1 6BG      0.073700
     16 H4          2.1220   -0.4500    4.1470 h2        1 6BG      0.057700
     17 H5          1.4520   -2.8000    3.4640 ho        1 6BG      0.441000
     18 H6          4.3900   -0.7170    0.7820 h1        1 6BG      0.064700
     19 H7          5.1860    1.4960    0.7710 ho        1 6BG      0.429000
     20 H8          4.2480    1.0500    3.3590 h1        1 6BG      0.065700
     21 H9          6.3720    0.0810    3.4940 ho        1 6BG      0.429000
     22 H10         4.5990   -2.0430    3.0640 h1        1 6BG      0.074700
     23 H11         4.3000   -1.7760    5.3490 ho        1 6BG      0.427000
@<TRIPOS>BOND
     1    1    2 1   
     2    2    3 1   
     3    2   13 1   
     4    2   14 1   
     5    3    4 1   
     6    3    7 1   
     7    3   15 1   
     8    4    5 1   
     9    5    6 1   
    10    5   11 1   
    11    5   16 1   
    12    6   17 1   
    13    7    8 1   
    14    7    9 1   
    15    7   18 1   
    16    8   19 1   
    17    9   10 1   
    18    9   11 1   
    19    9   20 1   
    20   10   21 1   
    21   11   12 1   
    22   11   22 1   
    23   12   23 1   
@<TRIPOS>SUBSTRUCTURE
     1 6BG         1 TEMP              0 ****  ****    0 ROOT
