@<TRIPOS>MOLECULE
molecule
   42    44     1     0     0
SMALL
bcc


@<TRIPOS>ATOM
      1 OAB          0.0000     0.0000     0.0000 o          1 6BH      -0.198000
      2 NBA          1.2180     0.0000     0.0000 no         1 6BH       0.294200
      3 OAC          1.8270     0.0000     1.0540 o          1 6BH      -0.198000
      4 CAY          1.9570    -0.0070    -1.2820 ca         1 6BH      -0.164200
      5 CAP          3.3370    -0.0130    -1.2810 ca         1 6BH      -0.012000
      6 CAN          1.2640    -0.0140    -2.4790 ca         1 6BH      -0.050000
      7 CAM          1.9480    -0.0200    -3.6830 ca         1 6BH      -0.141000
      8 CAW          3.3270    -0.0210    -3.6950 ca         1 6BH      -0.069000
      9 CAZ          4.0330    -0.0190    -2.4910 ca         1 6BH      -0.152600
     10 CAT          5.5110    -0.0250    -2.4970 c          1 6BH       0.672700
     11 OAA          6.1240    -0.0240    -1.4480 o          1 6BH      -0.572100
     12 NAR          6.1790    -0.0310    -3.6670 ns         1 6BH      -0.468100
     13 CAV          7.5750     0.0620    -3.6750 ca         1 6BH       0.085600
     14 CAO          8.3180    -0.5420    -2.6710 ca         1 6BH      -0.158000
     15 CAK          8.2200     0.7550    -4.6930 ca         1 6BH      -0.203000
     16 CAH          9.5980     0.8460    -4.7020 ca         1 6BH      -0.071000
     17 CAL         10.3390     0.2480    -3.6990 ca         1 6BH      -0.239000
     18 CAX          9.7010    -0.4530    -2.6850 ca         1 6BH       0.162100
     19 OAS         10.4310    -1.0380    -1.7000 os         1 6BH      -0.316900
     20 CAQ         11.8500    -0.8930    -1.7700 c3         1 6BH       0.187700
     21 CAU         12.4860    -1.6030    -0.6030 ca         1 6BH      -0.096300
     22 CAI         12.8490    -2.9330    -0.7170 ca         1 6BH      -0.102000
     23 CAF         13.4320    -3.5850     0.3540 ca         1 6BH      -0.131500
     24 CAE         13.6520    -2.9070     1.5380 ca         1 6BH      -0.116000
     25 CAG         13.2900    -1.5780     1.6520 ca         1 6BH      -0.131500
     26 CAJ         12.7120    -0.9250     0.5790 ca         1 6BH      -0.102000
     27 H1           3.8790    -0.0120    -0.3430 ha         1 6BH       0.193000
     28 H2           0.1800    -0.0140    -2.4740 ha         1 6BH       0.170000
     29 H3           1.3990    -0.0240    -4.6170 ha         1 6BH       0.152000
     30 H4           3.8610    -0.0250    -4.6380 ha         1 6BH       0.137000
     31 H5           5.6730     0.0100    -4.5300 hn         1 6BH       0.323500
     32 H6           7.8180    -1.0890    -1.8810 ha         1 6BH       0.179000
     33 H7           7.6420     1.2240    -5.4790 ha         1 6BH       0.127000
     34 H8          10.0990     1.3890    -5.4940 ha         1 6BH       0.133000
     35 H9          11.4200     0.3190    -3.7100 ha         1 6BH       0.136000
     36 H10         12.2120    -1.3230    -2.6960 h1         1 6BH       0.040700
     37 H11         12.1070     0.1590    -1.7360 h1         1 6BH       0.040700
     38 H12         12.6770    -3.4630    -1.6450 ha         1 6BH       0.133500
     39 H13         13.7160    -4.6260     0.2640 ha         1 6BH       0.132500
     40 H14         14.1060    -3.4180     2.3790 ha         1 6BH       0.131000
     41 H15         13.4650    -1.0460     2.5790 ha         1 6BH       0.132500
     42 H16         12.4290     0.1170     0.6680 ha         1 6BH       0.133500
@<TRIPOS>BOND
     1    24    25 ar  
     2    24    23 ar  
     3    25    26 ar  
     4    23    22 ar  
     5    26    21 ar  
     6    22    21 ar  
     7    21    20 1   
     8    20    19 1   
     9    19    18 1   
    10    18    17 ar  
    11    18    14 ar  
    12    17    16 ar  
    13    14    13 ar  
    14    16    15 ar  
    15    13    15 ar  
    16    13    12 1   
    17    12    10 1   
    18    11    10 2   
    19    10     9 1   
    20     9     5 ar  
    21     9     8 ar  
    22     5     4 ar  
    23     3     2 1   
    24     8     7 ar  
    25     4     2 1   
    26     4     6 ar  
    27     2     1 1   
    28     7     6 ar  
    29     5    27 1   
    30     6    28 1   
    31     7    29 1   
    32     8    30 1   
    33    12    31 1   
    34    14    32 1   
    35    15    33 1   
    36    16    34 1   
    37    17    35 1   
    38    20    36 1   
    39    20    37 1   
    40    22    38 1   
    41    23    39 1   
    42    24    40 1   
    43    25    41 1   
    44    26    42 1   
@<TRIPOS>SUBSTRUCTURE
     1 6BH         1 TEMP              0 ****  ****    0 ROOT
