@<TRIPOS>MOLECULE
6BH
   42    44     1     0     0
SMALL
bcc


@<TRIPOS>ATOM
      1 OAB          0.0000     0.0000     0.0000 o          1 6BH      -0.445000
      2 NBA          1.2180     0.0000     0.0000 no         1 6BH       1.047200
      3 OAC          1.8270     0.0000     1.0540 o          1 6BH      -0.445000
      4 CAY          1.9570    -0.0070    -1.2820 ca         1 6BH      -0.460200
      5 CAP          3.3370    -0.0130    -1.2810 ca         1 6BH       0.055000
      6 CAN          1.2640    -0.0140    -2.4790 ca         1 6BH       0.010000
      7 CAM          1.9480    -0.0200    -3.6830 ca         1 6BH      -0.125000
      8 CAW          3.3270    -0.0210    -3.6950 ca         1 6BH      -0.030000
      9 CAZ          4.0330    -0.0190    -2.4910 ca         1 6BH      -0.177600
     10 CAT          5.5110    -0.0250    -2.4970 c          1 6BH       0.580700
     11 OAA          6.1240    -0.0240    -1.4480 o          1 6BH      -0.617100
     12 NAR          6.1790    -0.0310    -3.6670 ns         1 6BH      -0.028100
     13 CAV          7.5750     0.0620    -3.6750 ca         1 6BH      -0.058400
     14 CAO          8.3180    -0.5420    -2.6710 ca         1 6BH      -0.144000
     15 CAK          8.2200     0.7550    -4.6930 ca         1 6BH      -0.181000
     16 CAH          9.5980     0.8460    -4.7020 ca         1 6BH      -0.036000
     17 CAL         10.3390     0.2480    -3.6990 ca         1 6BH      -0.227000
     18 CAX          9.7010    -0.4530    -2.6850 ca         1 6BH       0.173100
     19 OAS         10.4310    -1.0380    -1.7000 os         1 6BH      -0.294900
     20 CAQ         11.8500    -0.8930    -1.7700 c3         1 6BH       0.262700
     21 CAU         12.4860    -1.6030    -0.6030 ca         1 6BH      -0.114300
     22 CAI         12.8490    -2.9330    -0.7170 ca         1 6BH      -0.074500
     23 CAF         13.4320    -3.5850     0.3540 ca         1 6BH      -0.104500
     24 CAE         13.6520    -2.9070     1.5380 ca         1 6BH      -0.090000
     25 CAG         13.2900    -1.5780     1.6520 ca         1 6BH      -0.104500
     26 CAJ         12.7120    -0.9250     0.5790 ca         1 6BH      -0.074500
     27 H1           3.8790    -0.0120    -0.3430 ha         1 6BH       0.157000
     28 H2           0.1800    -0.0140    -2.4740 ha         1 6BH       0.133000
     29 H3           1.3990    -0.0240    -4.6170 ha         1 6BH       0.118000
     30 H4           3.8610    -0.0250    -4.6380 ha         1 6BH       0.105000
     31 H5           5.6730     0.0100    -4.5300 hn         1 6BH       0.169500
     32 H6           7.8180    -1.0890    -1.8810 ha         1 6BH       0.158000
     33 H7           7.6420     1.2240    -5.4790 ha         1 6BH       0.105000
     34 H8          10.0990     1.3890    -5.4940 ha         1 6BH       0.101000
     35 H9          11.4200     0.3190    -3.7100 ha         1 6BH       0.121000
     36 H10         12.2120    -1.3230    -2.6960 h1         1 6BH       0.003700
     37 H11         12.1070     0.1590    -1.7360 h1         1 6BH       0.003700
     38 H12         12.6770    -3.4630    -1.6450 ha         1 6BH       0.106000
     39 H13         13.7160    -4.6260     0.2640 ha         1 6BH       0.103500
     40 H14         14.1060    -3.4180     2.3790 ha         1 6BH       0.102000
     41 H15         13.4650    -1.0460     2.5790 ha         1 6BH       0.103500
     42 H16         12.4290     0.1170     0.6680 ha         1 6BH       0.106000
@<TRIPOS>BOND
     1     1     2 1   
     2     2     3 1   
     3     2     4 1   
     4     4     5 ar  
     5     4     6 ar  
     6     5     9 ar  
     7     5    27 1   
     8     6     7 ar  
     9     6    28 1   
    10     7     8 ar  
    11     7    29 1   
    12     8     9 ar  
    13     8    30 1   
    14     9    10 1   
    15    10    11 2   
    16    10    12 1   
    17    12    13 1   
    18    12    31 1   
    19    13    14 ar  
    20    13    15 ar  
    21    14    18 ar  
    22    14    32 1   
    23    15    16 ar  
    24    15    33 1   
    25    16    17 ar  
    26    16    34 1   
    27    17    18 ar  
    28    17    35 1   
    29    18    19 1   
    30    19    20 1   
    31    20    21 1   
    32    20    36 1   
    33    20    37 1   
    34    21    22 ar  
    35    21    26 ar  
    36    22    23 ar  
    37    22    38 1   
    38    23    24 ar  
    39    23    39 1   
    40    24    25 ar  
    41    24    40 1   
    42    25    26 ar  
    43    25    41 1   
    44    26    42 1   
@<TRIPOS>SUBSTRUCTURE
     1 6BH         1 TEMP              0 ****  ****    0 ROOT
