@<TRIPOS>MOLECULE
molecule
   44    47     1     0     0
SMALL
bcc


@<TRIPOS>ATOM
      1 C1           0.0000     0.0000     0.0000 cc         1 6BJ      -0.261300
      2 C2           1.3640     0.0000     0.0000 cd         1 6BJ      -0.083300
      3 C3          -0.4250     0.0060     1.3450 cd         1 6BJ       0.362200
      4 O1           8.0390     0.0100     2.2560 o          1 6BJ      -0.609100
      5 C11          5.7300    -0.0010     2.6000 ca         1 6BJ      -0.158600
      6 C12          4.6850    -0.0020     3.5270 ca         1 6BJ      -0.065000
      7 C13          5.4450    -0.0010     1.2320 ca         1 6BJ      -0.065000
      8 C14          3.3790    -0.0010     3.0900 ca         1 6BJ      -0.154500
      9 C15          7.1310     0.0040     3.0640 c          1 6BJ       0.675700
     10 C16          8.7950     0.0090     4.8440 c3         1 6BJ       0.071700
     11 C17          8.8250     0.0070     6.3520 ca         1 6BJ       0.392600
     12 C18          8.9490    -1.1910     7.0300 ca         1 6BJ      -0.236300
     13 C19          8.9760    -1.1830     8.4160 ca         1 6BJ      -0.095000
     14 C20          8.8760     0.0360     9.0710 ca         1 6BJ      -0.247300
     15 C21          8.7550     1.1930     8.3250 ca         1 6BJ       0.419200
     16 N1           1.7730     0.0000     1.2880 na         1 6BJ       0.153300
     17 N2           0.6360     0.0030     2.1070 nc         1 6BJ      -0.503800
     18 C4          -1.1850     0.0020    -3.5690 ca         1 6BJ       0.427200
     19 N3          -2.4950     0.0020    -3.4030 nb         1 6BJ      -0.698000
     20 C5          -3.0480     0.0010    -2.2050 ca         1 6BJ       0.427200
     21 C6          -2.2690     0.0010    -1.0670 ca         1 6BJ      -0.257800
     22 C7          -0.8770     0.0010    -1.1960 ca         1 6BJ       0.047000
     23 C8          -0.3340    -0.0030    -2.4840 ca         1 6BJ      -0.257800
     24 C9           3.1000    -0.0000     1.7280 ca         1 6BJ       0.058800
     25 C10          4.1370    -0.0000     0.8020 ca         1 6BJ      -0.154500
     26 N4           7.4040     0.0030     4.3830 ns         1 6BJ      -0.577900
     27 N5           8.7380     1.1470     7.0060 nb         1 6BJ      -0.679000
     28 H1           2.0040    -0.0030    -0.8740 h4         1 6BJ       0.181000
     29 H2          -1.4530     0.0080     1.6870 h4         1 6BJ       0.057100
     30 H3           4.9020    -0.0030     4.5890 ha         1 6BJ       0.150000
     31 H4           6.2530    -0.0000     0.5100 ha         1 6BJ       0.150000
     32 H5           2.5680    -0.0020     3.8090 ha         1 6BJ       0.152000
     33 H6           9.3030    -0.8720     4.4710 h1         1 6BJ       0.069200
     34 H7           9.2940     0.8970     4.4750 h1         1 6BJ       0.069200
     35 H8           9.0240    -2.1250     6.4850 ha         1 6BJ       0.144000
     36 H9           9.0720    -2.1060     8.9740 ha         1 6BJ       0.141000
     37 H10          8.8920     0.0800    10.1530 ha         1 6BJ       0.141000
     38 H11          8.6790     2.1490     8.8290 h4         1 6BJ       0.027100
     39 H12         -0.7730     0.0010    -4.5710 h4         1 6BJ       0.023100
     40 H13         -4.1270     0.0010    -2.1150 h4         1 6BJ       0.023100
     41 H14         -2.7300    -0.0000    -0.0860 ha         1 6BJ       0.134500
     42 H15          0.7400    -0.0030    -2.6280 ha         1 6BJ       0.134500
     43 H16          3.9150     0.0000    -0.2590 ha         1 6BJ       0.152000
     44 H17          6.6560     0.0070     5.0490 hn         1 6BJ       0.319500
@<TRIPOS>BOND
     1    15    14 ar  
     2    15    27 ar  
     3    14    13 ar  
     4    27    11 ar  
     5    13    12 ar  
     6    11    12 ar  
     7    11    10 1   
     8    10    26 1   
     9    26     9 1   
    10     9     4 2   
    11     9     5 1   
    12     6     5 ar  
    13     6     8 ar  
    14     5     7 ar  
    15     8    24 ar  
    16     7    25 ar  
    17    24    25 ar  
    18    24    16 1   
    19    17    16 1   
    20    17     3 2   
    21    16     2 1   
    22     3     1 1   
    23     2     1 2   
    24     1    22 1   
    25    22    21 ar  
    26    22    23 ar  
    27    21    20 ar  
    28    23    18 ar  
    29    20    19 ar  
    30    18    19 ar  
    31     2    28 1   
    32     3    29 1   
    33     6    30 1   
    34     7    31 1   
    35     8    32 1   
    36    10    33 1   
    37    10    34 1   
    38    12    35 1   
    39    13    36 1   
    40    14    37 1   
    41    15    38 1   
    42    18    39 1   
    43    20    40 1   
    44    21    41 1   
    45    23    42 1   
    46    25    43 1   
    47    26    44 1   
@<TRIPOS>SUBSTRUCTURE
     1 6BJ         1 TEMP              0 ****  ****    0 ROOT
