@<TRIPOS>MOLECULE
6BJ
   44    47     1     0     0
SMALL
bcc


@<TRIPOS>ATOM
      1 C1           0.0000     0.0000     0.0000 cc         1 6BJ      -0.265300
      2 C2           1.3640     0.0000     0.0000 cd         1 6BJ      -0.249300
      3 C3          -0.4250     0.0060     1.3450 cc         1 6BJ       0.422200
      4 O1           8.0390     0.0100     2.2560 o          1 6BJ      -0.649100
      5 C11          5.7300    -0.0010     2.6000 ca         1 6BJ      -0.156600
      6 C12          4.6850    -0.0020     3.5270 ca         1 6BJ      -0.040500
      7 C13          5.4450    -0.0010     1.2320 ca         1 6BJ      -0.040500
      8 C14          3.3790    -0.0010     3.0900 ca         1 6BJ      -0.117500
      9 C15          7.1310     0.0040     3.0640 c          1 6BJ       0.593700
     10 C16          8.7950     0.0090     4.8440 c3         1 6BJ       0.010700
     11 C17          8.8250     0.0070     6.3520 ca         1 6BJ       0.336600
     12 C18          8.9490    -1.1910     7.0300 ca         1 6BJ      -0.201300
     13 C19          8.9760    -1.1830     8.4160 ca         1 6BJ      -0.069000
     14 C20          8.8760     0.0360     9.0710 ca         1 6BJ      -0.212300
     15 C21          8.7550     1.1930     8.3250 ca         1 6BJ       0.401200
     16 N1           1.7730     0.0000     1.2880 na         1 6BJ       0.636300
     17 N2           0.6360     0.0030     2.1070 nd         1 6BJ      -0.658800
     18 C4          -1.1850     0.0020    -3.5690 ca         1 6BJ       0.413200
     19 N3          -2.4950     0.0020    -3.4030 nb         1 6BJ      -0.594000
     20 C5          -3.0480     0.0010    -2.2050 ca         1 6BJ       0.413200
     21 C6          -2.2690     0.0010    -1.0670 ca         1 6BJ      -0.232300
     22 C7          -0.8770     0.0010    -1.1960 ca         1 6BJ       0.057000
     23 C8          -0.3340    -0.0030    -2.4840 ca         1 6BJ      -0.232300
     24 C9           3.1000    -0.0000     1.7280 ca         1 6BJ      -0.127200
     25 C10          4.1370    -0.0000     0.8020 ca         1 6BJ      -0.117500
     26 N4           7.4040     0.0030     4.3830 ns         1 6BJ      -0.187900
     27 N5           8.7380     1.1470     7.0060 nb         1 6BJ      -0.561000
     28 H1           2.0040    -0.0030    -0.8740 h4         1 6BJ       0.157000
     29 H2          -1.4530     0.0080     1.6870 h4         1 6BJ       0.009100
     30 H3           4.9020    -0.0030     4.5890 ha         1 6BJ       0.120500
     31 H4           6.2530    -0.0000     0.5100 ha         1 6BJ       0.120500
     32 H5           2.5680    -0.0020     3.8090 ha         1 6BJ       0.127000
     33 H6           9.3030    -0.8720     4.4710 h1         1 6BJ       0.036700
     34 H7           9.2940     0.8970     4.4750 h1         1 6BJ       0.036700
     35 H8           9.0240    -2.1250     6.4850 ha         1 6BJ       0.119000
     36 H9           9.0720    -2.1060     8.9740 ha         1 6BJ       0.111000
     37 H10          8.8920     0.0800    10.1530 ha         1 6BJ       0.115000
     38 H11          8.6790     2.1490     8.8290 h4         1 6BJ      -0.016900
     39 H12         -0.7730     0.0010    -4.5710 h4         1 6BJ      -0.021900
     40 H13         -4.1270     0.0010    -2.1150 h4         1 6BJ      -0.021900
     41 H14         -2.7300    -0.0000    -0.0860 ha         1 6BJ       0.114000
     42 H15          0.7400    -0.0030    -2.6280 ha         1 6BJ       0.114000
     43 H16          3.9150     0.0000    -0.2590 ha         1 6BJ       0.127000
     44 H17          6.6560     0.0070     5.0490 hn         1 6BJ       0.181500
@<TRIPOS>BOND
     1     1     2 2   
     2     1     3 1   
     3     1    22 1   
     4     2    16 1   
     5     2    28 1   
     6     3    17 2   
     7     3    29 1   
     8     4     9 2   
     9     5     6 ar  
    10     5     7 ar  
    11     5     9 1   
    12     6     8 ar  
    13     6    30 1   
    14     7    25 ar  
    15     7    31 1   
    16     8    24 ar  
    17     8    32 1   
    18     9    26 1   
    19    10    11 1   
    20    10    26 1   
    21    10    33 1   
    22    10    34 1   
    23    11    12 ar  
    24    11    27 ar  
    25    12    13 ar  
    26    12    35 1   
    27    13    14 ar  
    28    13    36 1   
    29    14    15 ar  
    30    14    37 1   
    31    15    27 ar  
    32    15    38 1   
    33    16    17 1   
    34    16    24 1   
    35    18    19 ar  
    36    18    23 ar  
    37    18    39 1   
    38    19    20 ar  
    39    20    21 ar  
    40    20    40 1   
    41    21    22 ar  
    42    21    41 1   
    43    22    23 ar  
    44    23    42 1   
    45    24    25 ar  
    46    25    43 1   
    47    26    44 1   
@<TRIPOS>SUBSTRUCTURE
     1 6BJ         1 TEMP              0 ****  ****    0 ROOT
