@<TRIPOS>MOLECULE
molecule
   30    32     1     0     0
SMALL
bcc


@<TRIPOS>ATOM
      1 OAI          0.0000     0.0000     0.0000 oh         1 6BK      -0.509100
      2 CAG          1.3600     0.0000     0.0000 ca         1 6BK       0.085100
      3 CAH          2.0510     0.0000     1.1970 ca         1 6BK      -0.109000
      4 CAF          2.0570    -0.0050    -1.2070 ca         1 6BK       0.108100
      5 OAJ          1.3750    -0.0090    -2.3830 oh         1 6BK      -0.510100
      6 CAE          3.4440    -0.0040    -1.2120 ca         1 6BK      -0.162000
      7 CAD          4.1410     0.0010    -0.0230 ca         1 6BK      -0.088000
      8 CAC          3.4490    -0.0000     1.1920 ca         1 6BK      -0.069800
      9 CAB          4.1920     0.0060     2.4660 cc         1 6BK       0.201900
     10 OAK          3.5000    -0.0010     3.6170 os         1 6BK      -0.214200
     11 CAA          5.5520     0.0110     2.4310 cd         1 6BK      -0.332200
     12 CAR          6.2810     0.0160     3.6420 c          1 6BK       0.583900
     13 OAS          7.5020     0.0210     3.6490 o          1 6BK      -0.523100
     14 CAQ          5.5080     0.0150     4.8980 ca         1 6BK      -0.256600
     15 CAL          4.1070     0.0030     4.8230 ca         1 6BK       0.187100
     16 CAM          3.3620    -0.0040     5.9940 ca         1 6BK      -0.189000
     17 CAN          3.9980     0.0010     7.2180 ca         1 6BK      -0.042000
     18 CAO          5.3800     0.0120     7.2980 ca         1 6BK      -0.250000
     19 CAP          6.1450     0.0190     6.1440 ca         1 6BK       0.216100
     20 OAT          7.5000     0.0300     6.2210 oh         1 6BK      -0.463100
     21 H1          -0.3140     0.8860     0.0730 ho         1 6BK       0.426000
     22 H2           1.5110    -0.0010     2.1360 ha         1 6BK       0.160000
     23 H3           1.4680    -0.8510    -2.7970 ho         1 6BK       0.429000
     24 H4           3.9820    -0.0060    -2.1530 ha         1 6BK       0.149000
     25 H5           5.2240     0.0010    -0.0290 ha         1 6BK       0.149000
     26 H6           6.0700    -0.1050     1.4870 ha         1 6BK       0.169000
     27 H7           2.2790    -0.0120     5.9470 ha         1 6BK       0.149000
     28 H8           3.4090    -0.0040     8.1280 ha         1 6BK       0.141000
     29 H9           5.8650     0.0160     8.2670 ha         1 6BK       0.140000
     30 H10          7.7680     0.5320     6.9720 ho         1 6BK       0.423000
@<TRIPOS>BOND
     1    17    16 ar  
     2    17    18 ar  
     3    16    15 ar  
     4    18    19 ar  
     5    15    10 1   
     6    15    14 ar  
     7    10     9 1   
     8     7     6 ar  
     9     7     8 ar  
    10     6     4 ar  
    11    19    14 ar  
    12    19    20 1   
    13    14    12 1   
    14     9     8 1   
    15     9    11 2   
    16     8     3 ar  
    17     4     5 1   
    18     4     2 ar  
    19    12    11 1   
    20    12    13 2   
    21     3     2 ar  
    22     2     1 1   
    23     1    21 1   
    24     3    22 1   
    25     5    23 1   
    26     6    24 1   
    27     7    25 1   
    28    11    26 1   
    29    16    27 1   
    30    17    28 1   
    31    18    29 1   
    32    20    30 1   
@<TRIPOS>SUBSTRUCTURE
     1 6BK         1 TEMP              0 ****  ****    0 ROOT
