@<TRIPOS>MOLECULE
molecule
   23    25     1     0     0
SMALL
bcc


@<TRIPOS>ATOM
      1 CAN          0.0000     0.0000     0.0000 c3         1 6BL      -0.116400
      2 CAL          1.5080     0.0000     0.0000 cc         1 6BL       0.397600
      3 CAI          2.3270     0.0000     1.1280 cc         1 6BL      -0.338300
      4 CAF          2.0270     0.0120     2.5690 ca         1 6BL       0.072000
      5 CAD          0.7670    -0.1800     3.1070 ca         1 6BL      -0.146000
      6 CAB          0.6070    -0.1610     4.4790 ca         1 6BL      -0.082000
      7 CAA          1.6960     0.0460     5.3140 ca         1 6BL      -0.159000
      8 CAC          2.9580     0.2440     4.7960 ca         1 6BL      -0.043000
      9 CAE          3.1420     0.2360     3.4170 ca         1 6BL      -0.203600
     10 CAH          4.4530     0.4660     2.7900 c          1 6BL       0.765200
     11 OAG          5.3130     1.0870     3.3850 o          1 6BL      -0.549500
     12 OAK          4.7010    -0.0170     1.5480 os         1 6BL      -0.309200
     13 CAJ          3.6560    -0.0060     0.6870 cd         1 6BL       0.154800
     14 NAO          3.6210    -0.0010    -0.6520 na         1 6BL      -0.014600
     15 NAM          2.2780    -0.0060    -1.0590 nd         1 6BL      -0.505800
     16 H1          -0.3610     0.8320     0.5920 hc         1 6BL       0.056700
     17 H2          -0.3610     0.0970    -1.0170 hc         1 6BL       0.056700
     18 H3          -0.3610    -0.9290     0.4240 hc         1 6BL       0.056700
     19 H4          -0.0860    -0.3420     2.4590 ha         1 6BL       0.141000
     20 H5          -0.3760    -0.3150     4.9070 ha         1 6BL       0.134000
     21 H6           1.5510     0.0580     6.3870 ha         1 6BL       0.137000
     22 H7           3.8000     0.4050     5.4590 ha         1 6BL       0.151000
     23 H8           4.4160    -0.0040    -1.2590 hn         1 6BL       0.341700
@<TRIPOS>BOND
     1    14    15 1   
     2    14    13 1   
     3    15     2 2   
     4    13    12 1   
     5    13     3 2   
     6    12    10 1   
     7     2     3 1   
     8     2     1 1   
     9    11    10 2   
    10     3     4 1   
    11    10     9 1   
    12     4     9 ar  
    13     4     5 ar  
    14     9     8 ar  
    15     5     6 ar  
    16     8     7 ar  
    17     7     6 ar  
    18     1    16 1   
    19     1    17 1   
    20     1    18 1   
    21     5    19 1   
    22     6    20 1   
    23     7    21 1   
    24     8    22 1   
    25    14    23 1   
@<TRIPOS>SUBSTRUCTURE
     1 6BL         1 TEMP              0 ****  ****    0 ROOT
