@<TRIPOS>MOLECULE
6BM
   20    20     1     0     0
SMALL
bcc


@<TRIPOS>ATOM
      1 N01          0.0000     0.0000     0.0000 n          1 6BM      -0.076300
      2 C02          1.4580     0.0000     0.0000 c3         1 6BM       0.079000
      3 C03          1.9930     0.0000     1.4320 c3         1 6BM      -0.058400
      4 C04          1.3040    -1.1250     2.2140 c3         1 6BM       0.003600
      5 C05         -0.1760    -0.7690     2.3720 c3         1 6BM      -0.088900
      6 C06         -0.7470    -0.3560     1.0460 c          1 6BM       0.647500
      7 O07         -0.6640     0.4090    -1.1820 oh         1 6BM      -0.467100
      8 O08         -1.9530    -0.3540     0.9160 o          1 6BM      -0.641500
      9 P09         -1.0940    -2.2120     3.0030 p5         1 6BM       0.424700
     10 O10         -0.9740    -3.3320     2.0420 o          1 6BM      -0.729167
     11 O11         -0.4820    -2.6570     4.4250 o          1 6BM      -0.729167
     12 O12         -2.6460    -1.8240     3.1840 o          1 6BM      -0.729167
     13 H1           1.8140    -0.8850    -0.5130 h1         1 6BM      -0.022300
     14 H2           1.8140     0.8850    -0.5130 h1         1 6BM      -0.022300
     15 H3           3.0630    -0.1700     1.4190 hc         1 6BM      -0.012800
     16 H4           1.7760     0.9530     1.9010 hc         1 6BM      -0.012800
     17 H5           1.7610    -1.2210     3.1920 hc         1 6BM       0.026700
     18 H6           1.3970    -2.0570     1.6690 hc         1 6BM       0.026700
     19 H7          -0.2710     0.0530     3.0710 hc         1 6BM       0.028700
     20 H8          -0.8190     1.3390    -1.1490 ho         1 6BM       0.351000
@<TRIPOS>BOND
     1     1     2 1   
     2     1     6 1   
     3     1     7 1   
     4     2     3 1   
     5     2    13 1   
     6     2    14 1   
     7     3     4 1   
     8     3    15 1   
     9     3    16 1   
    10     4     5 1   
    11     4    17 1   
    12     4    18 1   
    13     5     6 1   
    14     5     9 1   
    15     5    19 1   
    16     6     8 2   
    17     7    20 1   
    18     9    10 1   
    19     9    11 1   
    20     9    12 1   
@<TRIPOS>SUBSTRUCTURE
     1 6BM         1 TEMP              0 ****  ****    0 ROOT
