@<TRIPOS>MOLECULE
molecule
   20    20     1     0     0
SMALL
bcc


@<TRIPOS>ATOM
      1 N01          0.0000     0.0000     0.0000 n          1 6BM      -0.384300
      2 C02          1.4580     0.0000     0.0000 c3         1 6BM       0.129000
      3 C03          1.9930     0.0000     1.4320 c3         1 6BM      -0.105400
      4 C04          1.3040    -1.1250     2.2140 c3         1 6BM      -0.052400
      5 C05         -0.1760    -0.7690     2.3720 c3         1 6BM      -0.240900
      6 C06         -0.7470    -0.3560     1.0460 c          1 6BM       0.723500
      7 O07         -0.6640     0.4090    -1.1820 oh         1 6BM      -0.406100
      8 O08         -1.9530    -0.3540     0.9160 o          1 6BM      -0.591500
      9 P09         -1.0940    -2.2120     3.0030 p5         1 6BM       1.020700
     10 O10         -0.9740    -3.3320     2.0420 o          1 6BM      -0.894500
     11 O11         -0.4820    -2.6570     4.4250 o          1 6BM      -0.894500
     12 O12         -2.6460    -1.8240     3.1840 o          1 6BM      -0.894500
     13 H1           1.8140    -0.8850    -0.5130 h1         1 6BM       0.009200
     14 H2           1.8140     0.8850    -0.5130 h1         1 6BM       0.009200
     15 H3           3.0630    -0.1700     1.4190 hc         1 6BM       0.017200
     16 H4           1.7760     0.9530     1.9010 hc         1 6BM       0.017200
     17 H5           1.7610    -1.2210     3.1920 hc         1 6BM       0.059200
     18 H6           1.3970    -2.0570     1.6690 hc         1 6BM       0.059200
     19 H7          -0.2710     0.0530     3.0710 hc         1 6BM       0.060700
     20 H8          -0.8190     1.3390    -1.1490 ho         1 6BM       0.359000
@<TRIPOS>BOND
     1     8     6 2
     2     5     6 1
     3     5     4 1
     4     5     9 1
     5    10     9 1
     6     6     1 1
     7     4     3 1
     8    11     9 1
     9     9    12 1
    10     1     7 1
    11     1     2 1
    12     3     2 1
    13     2    13 1
    14     2    14 1
    15     3    15 1
    16     3    16 1
    17     4    17 1
    18     4    18 1
    19     5    19 1
    20     7    20 1
@<TRIPOS>SUBSTRUCTURE
     1 6BM         1 TEMP              0 ****  ****    0 ROOT
