@<TRIPOS>MOLECULE
molecule
   67    70     1     0     0
SMALL
bcc


@<TRIPOS>ATOM
      1 C4           0.0000     0.0000     0.0000 ca         1 6BN      -0.073300
      2 C5           1.3970     0.0000     0.0000 ca         1 6BN      -0.094600
      3 C6           2.0940     0.0000     1.2070 ca         1 6BN       0.049400
      4 C8           2.1150     0.0210    -1.2910 c          1 6BN       0.717100
      5 C10          0.0380     0.7230    -2.3780 c3         1 6BN       0.114000
      6 C13          2.8690     1.4000    -4.0310 cc         1 6BN      -0.266400
      7 C15          4.9240     2.5870    -4.2850 cd         1 6BN      -0.239000
      8 C22          5.3660    -0.6040    -4.8980 c3         1 6BN      -0.090100
      9 C26          1.2780     0.0990     4.7770 c3         1 6BN       0.141100
     10 C28          0.0610     1.6470     6.3140 c3         1 6BN       0.107000
     11 C1           1.3910     0.0140     2.4030 ca         1 6BN       0.141100
     12 C2           0.0040     0.0290     2.3940 ca         1 6BN      -0.197000
     13 C3          -0.6890     0.0210     1.1940 ca         1 6BN       0.051400
     14 Cl7          3.8300    -0.0190     1.2130 cl         1 6BN      -0.041400
     15 N9           1.4330     0.2880    -2.4210 n          1 6BN      -0.473800
     16 C11         -0.7400    -0.0440    -1.3120 c3         1 6BN      -0.059100
     17 C12          2.1010     0.1410    -3.7170 c3         1 6BN       0.183200
     18 C14          4.2320     1.4050    -3.9880 cd         1 6BN       0.051800
     19 C16          4.2370     3.7070    -4.6110 cc         1 6BN       0.050400
     20 N17          2.8800     3.6990    -4.6630 ns         1 6BN      -0.405100
     21 C18          2.1880     2.5790    -4.3780 c          1 6BN       0.699700
     22 O19          0.9680     2.5890    -4.4220 o          1 6BN      -0.681500
     23 O23          3.3090    -0.2000    -1.3320 o          1 6BN      -0.633500
     24 Cl          -2.4240     0.0380     1.1960 cl         1 6BN      -0.098400
     25 O25          2.0620     0.0150     3.5850 os         1 6BN      -0.305900
     26 C27          0.9310     1.5630     5.0560 c3         1 6BN      -0.112400
     27 N29          0.7600     0.9720     7.4170 n          1 6BN      -0.502800
     28 C30          1.2180    -0.4110     7.2220 c3         1 6BN       0.107000
     29 C31          2.0750    -0.4710     5.9530 c3         1 6BN      -0.112400
     30 C32          0.9750     1.6080     8.5860 c          1 6BN       0.645100
     31 C33          0.3980     2.9810     8.8140 c3         1 6BN       0.076100
     32 C34         -1.1260     2.8830     8.9140 c3         1 6BN      -0.100100
     33 O35          0.9220     3.5230    10.0270 oh         1 6BN      -0.569800
     34 O36          1.6340     1.0760     9.4530 o          1 6BN      -0.575100
     35 H1           0.0040     1.7810    -2.1490 h1         1 6BN       0.065200
     36 H2          -0.4180     0.5470    -3.3450 h1         1 6BN       0.065200
     37 H3           6.0070     2.6040    -4.2540 ha         1 6BN       0.150000
     38 H4           5.7290     4.7740    -5.6920 hc         1 6BN       0.057033
     39 H5           5.4780     5.3390    -4.0350 hc         1 6BN       0.057033
     40 H6           4.2930     5.7240    -5.2900 hc         1 6BN       0.057033
     41 H7           4.3710    -0.4830    -2.9970 hc         1 6BN       0.078200
     42 H8           5.8860     0.4260    -3.0860 hc         1 6BN       0.078200
     43 H9           5.4210    -1.6650    -4.6860 hc         1 6BN       0.035367
     44 H10          6.3180    -0.2630    -5.2870 hc         1 6BN       0.035367
     45 H11          4.5900    -0.4230    -5.6330 hc         1 6BN       0.035367
     46 H12          0.3640    -0.4690     4.6540 h1         1 6BN       0.049700
     47 H13         -0.1040     2.6860     6.5720 h1         1 6BN       0.059700
     48 H14         -0.8870     1.1560     6.1320 h1         1 6BN       0.059700
     49 H15         -0.5400     0.0390     3.3310 ha         1 6BN       0.155000
     50 H16         -1.7160     0.4070    -1.1870 hc         1 6BN       0.070200
     51 H17         -0.8520    -1.0760    -1.6240 hc         1 6BN       0.070200
     52 H18          2.7840    -0.6980    -3.6780 h1         1 6BN       0.068200
     53 H19          1.3600    -0.0320    -4.4870 h1         1 6BN       0.068200
     54 H20          2.3890     4.5350    -4.9080 hn         1 6BN       0.333500
     55 H21          0.3870     1.9710     4.2140 hc         1 6BN       0.066700
     56 H22          1.8440     2.1260     5.2110 hc         1 6BN       0.066700
     57 H23          0.3610    -1.0640     7.1110 h1         1 6BN       0.059700
     58 H24          1.8110    -0.7200     8.0740 h1         1 6BN       0.059700
     59 H25          2.9740     0.1160     6.0970 hc         1 6BN       0.066700
     60 H26          2.3380    -1.5000     5.7440 hc         1 6BN       0.066700
     61 H27          0.6640     3.6270     7.9860 h1         1 6BN       0.039700
     62 H28         -1.4750     3.5130     9.7240 hc         1 6BN       0.051033
     63 H29         -1.4090     1.8560     9.1080 hc         1 6BN       0.051033
     64 H30         -1.5710     3.2120     7.9830 hc         1 6BN       0.051033
     65 H31          1.4840     4.2530     9.8280 ho         1 6BN       0.404000
     66 C20          4.9870     4.9750    -4.9290 c3         1 6BN      -0.062900
     67 C21          4.9870     0.1520    -3.6240 c3         1 6BN      -0.069200
@<TRIPOS>BOND
     1    22    21 2
     2    24    13 1
     3    16     5 1
     4    16     1 1
     5     5    15 1
     6    21    20 1
     7    21     6 1
     8     1    13 ar
     9     1     2 ar
    10    13    12 ar
    11    17    15 1
    12    17     6 1
    13    15     4 1
    14    20    19 1
    15     6    18 2
    16     4     2 1
    17     4    23 2
    18    12    11 ar
    19     2     3 ar
    20    19    66 1
    21    19     7 2
    22    11     3 ar
    23    11    25 1
    24     3    14 1
    25    18     7 1
    26    18    67 1
    27    26    10 1
    28    26     9 1
    29    10    27 1
    30    25     9 1
    31    67     8 1
    32     9    29 1
    33    32    31 1
    34    31    33 1
    35    31    30 1
    36    27    30 1
    37    27    28 1
    38    29    28 1
    39    30    34 2
    40     5    35 1
    41     5    36 1
    42     7    37 1
    43    66    38 1
    44    66    39 1
    45    66    40 1
    46    67    41 1
    47    67    42 1
    48     8    43 1
    49     8    44 1
    50     8    45 1
    51     9    46 1
    52    10    47 1
    53    10    48 1
    54    12    49 1
    55    16    50 1
    56    16    51 1
    57    17    52 1
    58    17    53 1
    59    20    54 1
    60    26    55 1
    61    26    56 1
    62    28    57 1
    63    28    58 1
    64    29    59 1
    65    29    60 1
    66    31    61 1
    67    32    62 1
    68    32    63 1
    69    32    64 1
    70    33    65 1
@<TRIPOS>SUBSTRUCTURE
     1 6BN         1 TEMP              0 ****  ****    0 ROOT
