@<TRIPOS>MOLECULE
6BS
   60    62     1     0     0
SMALL
bcc


@<TRIPOS>ATOM
      1 C27          0.0000     0.0000     0.0000 c3         1 6BS       0.002900
      2 C26          1.5290     0.0000     0.0000 c3         1 6BS      -0.066000
      3 C28          2.0390     0.0000     1.4420 c3         1 6BS       0.002900
      4 C29          2.0400    -1.2490    -0.7210 c3         1 6BS       0.002900
      5 C25          2.0400     1.2490    -0.7210 c3         1 6BS      -0.034400
      6 C23          1.5310     2.4990    -0.0000 c3         1 6BS       0.034000
      7 N21          2.0200     3.6940    -0.6910 ns         1 6BS      -0.201900
      8 C20          1.6950     4.9190    -0.2310 c          1 6BS       0.569100
      9 O22          0.9970     5.0300     0.7550 o          1 6BS      -0.649100
     10 C19          2.1970     6.1490    -0.9410 c3         1 6BS      -0.096400
     11 C18          1.6880     7.3970    -0.2210 c3         1 6BS       0.052900
     12 C9           2.1900     8.6280    -0.9300 ca         1 6BS      -0.212600
     13 C8           3.5020     9.0770    -0.7160 ca         1 6BS       0.506200
     14 N7           3.9720    10.1470    -1.3220 nb         1 6BS      -0.584000
     15 N24          4.3230     8.3760     0.1540 nv         1 6BS      -0.653500
     16 C10          1.3740     9.3030    -1.7860 ca         1 6BS      -0.053000
     17 C5           1.8840    10.4510    -2.4320 ca         1 6BS      -0.151300
     18 C6           1.0960    11.1900    -3.3240 ca         1 6BS      -0.076000
     19 C4           3.2160    10.8550    -2.1690 ca         1 6BS       0.377600
     20 C3           3.7300    11.9970    -2.8100 ca         1 6BS      -0.143300
     21 C2           2.9490    12.7040    -3.6690 ca         1 6BS      -0.095000
     22 C1           1.6310    12.3080    -3.9380 cp         1 6BS      -0.028000
     23 C11          0.8030    13.0970    -4.8840 cp         1 6BS      -0.040000
     24 C12          0.1140    12.4550    -5.9120 ca         1 6BS      -0.088000
     25 C13         -0.6550    13.1930    -6.7890 ca         1 6BS      -0.108000
     26 C14         -0.7410    14.5670    -6.6490 ca         1 6BS      -0.096000
     27 C15         -0.0600    15.2090    -5.6320 ca         1 6BS      -0.102000
     28 C16          0.7080    14.4790    -4.7450 ca         1 6BS      -0.073300
     29 C17          1.4460    15.1790    -3.6340 c3         1 6BS       0.049200
     30 H1          -0.3610    -1.0110     0.1440 hc         1 6BS       0.007700
     31 H2          -0.3610     0.6300     0.8040 hc         1 6BS       0.007700
     32 H3          -0.3610     0.3810    -0.9480 hc         1 6BS       0.007700
     33 H4           2.0240    -1.0110     1.8300 hc         1 6BS       0.007700
     34 H5           1.4020     0.6300     2.0500 hc         1 6BS       0.007700
     35 H6           3.0530     0.3810     1.4670 hc         1 6BS       0.007700
     36 H7           3.1230    -1.2490    -0.7200 hc         1 6BS       0.007700
     37 H8           1.6780    -2.1340    -0.2100 hc         1 6BS       0.007700
     38 H9           1.6790    -1.2490    -1.7420 hc         1 6BS       0.007700
     39 H10          3.1230     1.2490    -0.7210 hc         1 6BS       0.018700
     40 H11          1.6790     1.2490    -1.7430 hc         1 6BS       0.018700
     41 H12          0.4480     2.4990    -0.0000 h1         1 6BS       0.034700
     42 H13          1.8930     2.4990     1.0210 h1         1 6BS       0.034700
     43 H14          2.5950     3.6020    -1.5050 hn         1 6BS       0.172500
     44 H15          1.8370     6.1480    -1.9620 hc         1 6BS       0.029200
     45 H16          3.2810     6.1480    -0.9400 hc         1 6BS       0.029200
     46 H17          0.6040     7.3980    -0.2210 hc         1 6BS       0.035700
     47 H18          2.0480     7.3980     0.8010 hc         1 6BS       0.035700
     48 H19          5.0430     7.7820    -0.2060 hn         1 6BS       0.277300
     49 H20          4.2350     8.5110     1.1420 hn         1 6BS       0.277300
     50 H21          0.4620     8.8410    -2.1440 ha         1 6BS       0.115000
     51 H22          0.0770    10.8860    -3.5340 ha         1 6BS       0.114000
     52 H23          4.7460    12.3170    -2.6140 ha         1 6BS       0.117000
     53 H24          3.3530    13.5820    -4.1580 ha         1 6BS       0.116000
     54 H25          0.1820    11.3790    -6.0210 ha         1 6BS       0.107000
     55 H26         -1.1910    12.6960    -7.5880 ha         1 6BS       0.103000
     56 H27         -1.3440    15.1420    -7.3410 ha         1 6BS       0.101000
     57 H28         -0.1340    16.2840    -5.5260 ha         1 6BS       0.107000
     58 H29          0.9620    16.1240    -3.4180 hc         1 6BS       0.013700
     59 H30          1.4360    14.5580    -2.7460 hc         1 6BS       0.013700
     60 H31          2.4700    15.3590    -3.9370 hc         1 6BS       0.013700
@<TRIPOS>BOND
     1     1     2 1   
     2     1    30 1   
     3     1    31 1   
     4     1    32 1   
     5     2     3 1   
     6     2     4 1   
     7     2     5 1   
     8     3    33 1   
     9     3    34 1   
    10     3    35 1   
    11     4    36 1   
    12     4    37 1   
    13     4    38 1   
    14     5     6 1   
    15     5    39 1   
    16     5    40 1   
    17     6     7 1   
    18     6    41 1   
    19     6    42 1   
    20     7     8 1   
    21     7    43 1   
    22     8     9 2   
    23     8    10 1   
    24    10    11 1   
    25    10    44 1   
    26    10    45 1   
    27    11    12 1   
    28    11    46 1   
    29    11    47 1   
    30    12    13 ar  
    31    12    16 ar  
    32    13    14 ar  
    33    13    15 1   
    34    14    19 ar  
    35    15    48 1   
    36    15    49 1   
    37    16    17 ar  
    38    16    50 1   
    39    17    18 ar  
    40    17    19 ar  
    41    18    22 ar  
    42    18    51 1   
    43    19    20 ar  
    44    20    21 ar  
    45    20    52 1   
    46    21    22 ar  
    47    21    53 1   
    48    22    23 1   
    49    23    24 ar  
    50    23    28 ar  
    51    24    25 ar  
    52    24    54 1   
    53    25    26 ar  
    54    25    55 1   
    55    26    27 ar  
    56    26    56 1   
    57    27    28 ar  
    58    27    57 1   
    59    28    29 1   
    60    29    58 1   
    61    29    59 1   
    62    29    60 1   
@<TRIPOS>SUBSTRUCTURE
     1 6BS         1 TEMP              0 ****  ****    0 ROOT
