@<TRIPOS>MOLECULE
molecule
   60    62     1     0     0
SMALL
bcc


@<TRIPOS>ATOM
      1 C27          0.0000     0.0000     0.0000 c3         1 6BS      -0.084433
      2 C26          1.5290     0.0000     0.0000 c3         1 6BS      -0.067000
      3 C28          2.0390     0.0000     1.4420 c3         1 6BS      -0.084433
      4 C29          2.0400    -1.2490    -0.7210 c3         1 6BS      -0.084433
      5 C25          2.0400     1.2490    -0.7210 c3         1 6BS      -0.090400
      6 C23          1.5310     2.4990    -0.0000 c3         1 6BS       0.108000
      7 N21          2.0200     3.6940    -0.6910 ns         1 6BS      -0.590900
      8 C20          1.6950     4.9190    -0.2310 c          1 6BS       0.654100
      9 O22          0.9970     5.0300     0.7550 o          1 6BS      -0.611100
     10 C19          2.1970     6.1490    -0.9410 c3         1 6BS      -0.152400
     11 C18          1.6880     7.3970    -0.2210 c3         1 6BS      -0.008100
     12 C9           2.1900     8.6280    -0.9300 ca         1 6BS      -0.214600
     13 C8           3.5020     9.0770    -0.7160 ca         1 6BS       0.691200
     14 N7           3.9720    10.1470    -1.3220 nb         1 6BS      -0.708000
     15 N24          4.3230     8.3760     0.1540 nv         1 6BS      -1.079500
     16 C10          1.3740     9.3030    -1.7860 ca         1 6BS      -0.077000
     17 C5           1.8840    10.4510    -2.4320 ca         1 6BS      -0.162300
     18 C6           1.0960    11.1900    -3.3240 ca         1 6BS      -0.099000
     19 C4           3.2160    10.8550    -2.1690 ca         1 6BS       0.429600
     20 C3           3.7300    11.9970    -2.8100 ca         1 6BS      -0.170300
     21 C2           2.9490    12.7040    -3.6690 ca         1 6BS      -0.110000
     22 C1           1.6310    12.3080    -3.9380 cp         1 6BS      -0.039000
     23 C11          0.8030    13.0970    -4.8840 cp         1 6BS      -0.044000
     24 C12          0.1140    12.4550    -5.9120 ca         1 6BS      -0.113000
     25 C13         -0.6550    13.1930    -6.7890 ca         1 6BS      -0.134000
     26 C14         -0.7410    14.5670    -6.6490 ca         1 6BS      -0.122000
     27 C15         -0.0600    15.2090    -5.6320 ca         1 6BS      -0.128000
     28 C16          0.7080    14.4790    -4.7450 ca         1 6BS      -0.067300
     29 C17          1.4460    15.1790    -3.6340 c3         1 6BS      -0.051800
     30 H1          -0.3610    -1.0110     0.1440 hc         1 6BS       0.037144
     31 H2          -0.3610     0.6300     0.8040 hc         1 6BS       0.037144
     32 H3          -0.3610     0.3810    -0.9480 hc         1 6BS       0.037144
     33 H4           2.0240    -1.0110     1.8300 hc         1 6BS       0.037144
     34 H5           1.4020     0.6300     2.0500 hc         1 6BS       0.037144
     35 H6           3.0530     0.3810     1.4670 hc         1 6BS       0.037144
     36 H7           3.1230    -1.2490    -0.7200 hc         1 6BS       0.037144
     37 H8           1.6780    -2.1340    -0.2100 hc         1 6BS       0.037144
     38 H9           1.6790    -1.2490    -1.7420 hc         1 6BS       0.037144
     39 H10          3.1230     1.2490    -0.7210 hc         1 6BS       0.044700
     40 H11          1.6790     1.2490    -1.7430 hc         1 6BS       0.044700
     41 H12          0.4480     2.4990    -0.0000 h1         1 6BS       0.056200
     42 H13          1.8930     2.4990     1.0210 h1         1 6BS       0.056200
     43 H14          2.5950     3.6020    -1.5050 hn         1 6BS       0.311500
     44 H15          1.8370     6.1480    -1.9620 hc         1 6BS       0.061200
     45 H16          3.2810     6.1480    -0.9400 hc         1 6BS       0.061200
     46 H17          0.6040     7.3980    -0.2210 hc         1 6BS       0.066200
     47 H18          2.0480     7.3980     0.8010 hc         1 6BS       0.066200
     48 H19          5.0430     7.7820    -0.2060 hn         1 6BS       0.436800
     49 H20          4.2350     8.5110     1.1420 hn         1 6BS       0.436800
     50 H21          0.4620     8.8410    -2.1440 ha         1 6BS       0.142000
     51 H22          0.0770    10.8860    -3.5340 ha         1 6BS       0.139000
     52 H23          4.7460    12.3170    -2.6140 ha         1 6BS       0.149000
     53 H24          3.3530    13.5820    -4.1580 ha         1 6BS       0.140000
     54 H25          0.1820    11.3790    -6.0210 ha         1 6BS       0.133000
     55 H26         -1.1910    12.6960    -7.5880 ha         1 6BS       0.130000
     56 H27         -1.3440    15.1420    -7.3410 ha         1 6BS       0.129000
     57 H28         -0.1340    16.2840    -5.5260 ha         1 6BS       0.132000
     58 H29          0.9620    16.1240    -3.4180 hc         1 6BS       0.046367
     59 H30          1.4360    14.5580    -2.7460 hc         1 6BS       0.046367
     60 H31          2.4700    15.3590    -3.9370 hc         1 6BS       0.046367
@<TRIPOS>BOND
     1    15    13 1
     2    13    14 ar
     3    13    12 ar
     4    14    19 ar
     5    11    10 1
     6    11    12 1
     7    10     8 1
     8    12    16 ar
     9    19    20 ar
    10    19    17 ar
    11    20    21 ar
    12    16    17 ar
    13     8     7 1
    14     8     9 2
    15     7     6 1
    16    17    18 ar
    17    21    22 ar
    18     1     2 1
    19    18    22 ar
    20     6     5 1
    21    22    23 1
    22     5     2 1
    23     2     3 1
    24     2     4 1
    25    29    28 1
    26    23    28 ar
    27    23    24 ar
    28    28    27 ar
    29    24    25 ar
    30    27    26 ar
    31    25    26 ar
    32     1    30 1
    33     1    31 1
    34     1    32 1
    35     3    33 1
    36     3    34 1
    37     3    35 1
    38     4    36 1
    39     4    37 1
    40     4    38 1
    41     5    39 1
    42     5    40 1
    43     6    41 1
    44     6    42 1
    45     7    43 1
    46    10    44 1
    47    10    45 1
    48    11    46 1
    49    11    47 1
    50    15    48 1
    51    15    49 1
    52    16    50 1
    53    18    51 1
    54    20    52 1
    55    21    53 1
    56    24    54 1
    57    25    55 1
    58    26    56 1
    59    27    57 1
    60    29    58 1
    61    29    59 1
    62    29    60 1
@<TRIPOS>SUBSTRUCTURE
     1 6BS         1 TEMP              0 ****  ****    0 ROOT
