@<TRIPOS>MOLECULE
molecule
   25    26     1     0     0
SMALL
bcc


@<TRIPOS>ATOM
      1 CAJ          0.0000     0.0000     0.0000 c3         1 6BT      -0.033100
      2 CAG          2.0620    -1.2240     3.5100 c3         1 6BT       0.145400
      3 CAI          1.5290     0.0000     0.0000 c3         1 6BT       0.153800
      4 CAL         -0.5140    -1.0930     0.9020 ca         1 6BT      -0.057300
      5 OAA          3.4610    -0.9910     3.6820 oh         1 6BT      -0.619800
      6 CAN          1.7390    -1.3040     2.0170 c3         1 6BT       0.218800
      7 NAK          1.9960     0.0000     1.3970 n7         1 6BT      -0.810200
      8 CAM          0.2960    -1.6960     1.8420 ca         1 6BT      -0.074300
      9 CAE         -1.8350    -1.4920     0.7710 ca         1 6BT      -0.130000
     10 CAC         -2.3480    -2.4870     1.5810 ca         1 6BT      -0.125000
     11 CAD         -1.5380    -3.0890     2.5240 ca         1 6BT      -0.131000
     12 CAF         -0.2220    -2.6940     2.6540 ca         1 6BT      -0.130000
     13 H1          -0.3580    -0.1690    -1.0080 hc         1 6BT       0.056700
     14 H2          -0.3580     0.9580     0.3580 hc         1 6BT       0.056700
     15 H3           1.5020    -0.4250     3.9800 h1         1 6BT       0.032700
     16 H4           1.7950    -2.1690     3.9660 h1         1 6BT       0.032700
     17 H5           1.8820     0.9000    -0.4890 h1         1 6BT       0.038200
     18 H6           1.8820    -0.9000    -0.4890 h1         1 6BT       0.038200
     19 H7           3.6690    -0.9910     4.6020 ho         1 6BT       0.405000
     20 H8           2.3690    -2.0510     1.5500 h1         1 6BT       0.042700
     21 H9           2.9770     0.1930     1.4200 hn         1 6BT       0.370800
     22 H11         -2.4690    -1.0190     0.0310 ha         1 6BT       0.130000
     23 H12         -3.3810    -2.7940     1.4760 ha         1 6BT       0.129000
     24 H13         -1.9360    -3.8700     3.1620 ha         1 6BT       0.129000
     25 H14          0.4120    -3.1680     3.3950 ha         1 6BT       0.129000
@<TRIPOS>BOND
     1    10    11 ar
     2    10     9 ar
     3    11    12 ar
     4     9     4 ar
     5    12     8 ar
     6     4     8 ar
     7     4     1 1
     8     8     6 1
     9     1     3 1
    10     6     2 1
    11     6     7 1
    12     3     7 1
    13     2     5 1
    14     1    13 1
    15     1    14 1
    16     2    15 1
    17     2    16 1
    18     3    17 1
    19     3    18 1
    20     5    19 1
    21     6    20 1
    22     7    21 1
    23     9    22 1
    24    10    23 1
    25    11    24 1
    26    12    25 1
@<TRIPOS>SUBSTRUCTURE
     1 6BT         1 TEMP              0 ****  ****    0 ROOT
