@<TRIPOS>MOLECULE
6BT
   25    26     1     0     0
SMALL
bcc


@<TRIPOS>ATOM
      1 CAJ          0.0000     0.0000     0.0000 c3         1 6BT       0.033900
      2 CAG          2.0620    -1.2240     3.5100 c3         1 6BT       0.217400
      3 CAI          1.5290     0.0000     0.0000 c3         1 6BT       0.142800
      4 CAL         -0.5140    -1.0930     0.9020 ca         1 6BT      -0.063300
      5 OAA          3.4610    -0.9910     3.6820 oh         1 6BT      -0.600800
      6 CAN          1.7390    -1.3040     2.0170 c3         1 6BT       0.176800
      7 NAK          1.9960     0.0000     1.3970 n7         1 6BT      -0.576200
      8 CAM          0.2960    -1.6960     1.8420 ca         1 6BT      -0.079300
      9 CAE         -1.8350    -1.4920     0.7710 ca         1 6BT      -0.103000
     10 CAC         -2.3480    -2.4870     1.5810 ca         1 6BT      -0.099000
     11 CAD         -1.5380    -3.0890     2.5240 ca         1 6BT      -0.104000
     12 CAF         -0.2220    -2.6940     2.6540 ca         1 6BT      -0.110000
     13 H1          -0.3580    -0.1690    -1.0080 hc         1 6BT       0.024700
     14 H2          -0.3580     0.9580     0.3580 hc         1 6BT       0.024700
     15 H3           1.5020    -0.4250     3.9800 h1         1 6BT      -0.000800
     16 H4           1.7950    -2.1690     3.9660 h1         1 6BT      -0.000800
     17 H5           1.8820     0.9000    -0.4890 h1         1 6BT       0.009700
     18 H6           1.8820    -0.9000    -0.4890 h1         1 6BT       0.009700
     19 H7           3.6690    -0.9910     4.6020 ho         1 6BT       0.393000
     20 H8           2.3690    -2.0510     1.5500 h1         1 6BT       0.019700
     21 H9           2.9770     0.1930     1.4200 hn         1 6BT       0.267800
     22 H11         -2.4690    -1.0190     0.0310 ha         1 6BT       0.105000
     23 H12         -3.3810    -2.7940     1.4760 ha         1 6BT       0.102000
     24 H13         -1.9360    -3.8700     3.1620 ha         1 6BT       0.102000
     25 H14          0.4120    -3.1680     3.3950 ha         1 6BT       0.110000
@<TRIPOS>BOND
     1     1     3 1   
     2     1     4 1   
     3     1    13 1   
     4     1    14 1   
     5     2     5 1   
     6     2     6 1   
     7     2    15 1   
     8     2    16 1   
     9     3     7 1   
    10     3    17 1   
    11     3    18 1   
    12     4     8 ar  
    13     4     9 ar  
    14     5    19 1   
    15     6     7 1   
    16     6     8 1   
    17     6    20 1   
    18     7    21 1   
    19     8    12 ar  
    20     9    10 ar  
    21     9    22 1   
    22    10    11 ar  
    23    10    23 1   
    24    11    12 ar  
    25    11    24 1   
    26    12    25 1   
@<TRIPOS>SUBSTRUCTURE
     1 6BT         1 TEMP              0 ****  ****    0 ROOT
