@<TRIPOS>MOLECULE
6BU
   48    52     1     0     0
SMALL
bcc


@<TRIPOS>ATOM
      1 C8           0.0000     0.0000     0.0000 cp         1 6BU       0.016000
      2 C5           1.3550    -0.0000     2.4190 ca         1 6BU      -0.272900
      3 C6          -0.0450    -0.0000     2.3990 ca         1 6BU      -0.017000
      4 N1           3.4060     0.0000     1.5390 na         1 6BU       0.416900
      5 C2           2.8200    -0.0010     7.2270 cx         1 6BU      -0.218700
      6 N3          -4.2110     0.0410    -2.5110 nu         1 6BU      -0.402500
      7 C4           2.3510    -0.0000     3.4900 cc         1 6BU       0.309500
      8 O2           4.2510    -0.0000     5.3490 o          1 6BU      -0.583100
      9 C3           3.1050    -0.0010     5.7470 c          1 6BU       0.581100
     10 C1           3.1730    -1.2660     8.0140 cx         1 6BU      -0.049400
     11 C            4.0190    -0.0010     8.1770 cx         1 6BU      -0.049400
     12 N            2.0870    -0.0000     4.8640 ns         1 6BU      -0.004400
     13 N2           3.5330     0.0000     2.9320 nd         1 6BU      -0.613100
     14 C10          2.0750     0.0000     1.2090 ca         1 6BU      -0.166200
     15 C9           1.3870     0.0000     0.0000 ca         1 6BU      -0.123000
     16 C7          -0.7080    -0.0010     1.2080 ca         1 6BU      -0.149000
     17 C11         -0.7380     0.0060    -1.2870 cp         1 6BU      -0.020000
     18 C16         -2.1300     0.0180    -1.2930 ca         1 6BU      -0.132000
     19 C15         -2.8140     0.0300    -2.5000 ca         1 6BU       0.060600
     20 C14         -2.1090     0.0300    -3.6970 ca         1 6BU      -0.151000
     21 C13         -0.7270     0.0190    -3.6900 ca         1 6BU      -0.075000
     22 C12         -0.0390     0.0070    -2.4930 ca         1 6BU      -0.116000
     23 S           -5.0390    -0.9620    -3.5370 s6         1 6BU       0.983900
     24 O           -6.4060    -0.6610    -3.2930 o          1 6BU      -0.579800
     25 O1          -4.4520    -0.7230    -4.8100 o          1 6BU      -0.579800
     26 C17         -4.6390    -2.6330    -2.9560 cx         1 6BU      -0.124900
     27 C19         -5.1650    -3.8110    -3.7790 cx         1 6BU      -0.013400
     28 C18         -3.6750    -3.4640    -3.8050 cx         1 6BU      -0.013400
     29 H1          -0.6000    -0.0010     3.3290 ha         1 6BU       0.094000
     30 H2           4.1660     0.0010     0.8880 hn         1 6BU       0.155700
     31 H3           1.9520     0.5330     7.5920 hc         1 6BU       0.060700
     32 H4          -4.7110     0.6700    -1.9150 hn         1 6BU       0.348800
     33 H6           3.6290    -2.0630     7.4390 hc         1 6BU       0.052200
     34 H7           2.5160    -1.4990     8.8430 hc         1 6BU       0.052200
     35 H8           3.8790     0.5380     9.1050 hc         1 6BU       0.052200
     36 H9           4.9920    -0.0260     7.7010 hc         1 6BU       0.052200
     37 H10          1.1410     0.0020     5.1910 hn         1 6BU       0.168500
     38 H12          1.9320     0.0010    -0.9370 ha         1 6BU       0.117000
     39 H13         -1.7910    -0.0010     1.1970 ha         1 6BU       0.114000
     40 H14         -2.6750     0.1070    -0.3610 ha         1 6BU       0.117000
     41 H15         -2.6450     0.0400    -4.6390 ha         1 6BU       0.170000
     42 H16         -0.1820     0.0190    -4.6260 ha         1 6BU       0.105000
     43 H17          1.0440    -0.0020    -2.4910 ha         1 6BU       0.111000
     44 H18         -4.5790    -2.8160    -1.8900 h1         1 6BU       0.098700
     45 H19         -5.4300    -4.6960    -3.2120 hc         1 6BU       0.053950
     46 H20         -5.7220    -3.5470    -4.6700 hc         1 6BU       0.053950
     47 H21         -3.3210    -2.9890    -4.7120 hc         1 6BU       0.053950
     48 H22         -3.0290    -4.1380    -3.2540 hc         1 6BU       0.053950
@<TRIPOS>BOND
     1     1    15 ar  
     2     1    16 ar  
     3     1    17 1   
     4     2     3 ar  
     5     2     7 1   
     6     2    14 ar  
     7     3    16 ar  
     8     3    29 1   
     9     4    13 1   
    10     4    14 1   
    11     4    30 1   
    12     5     9 1   
    13     5    10 1   
    14     5    11 1   
    15     5    31 1   
    16     6    19 1   
    17     6    23 1   
    18     6    32 1   
    19     7    12 1   
    20     7    13 2   
    21     8     9 2   
    22     9    12 1   
    23    10    11 1   
    24    10    33 1   
    25    10    34 1   
    26    11    35 1   
    27    11    36 1   
    28    12    37 1   
    29    14    15 ar  
    30    15    38 1   
    31    16    39 1   
    32    17    18 ar  
    33    17    22 ar  
    34    18    19 ar  
    35    18    40 1   
    36    19    20 ar  
    37    20    21 ar  
    38    20    41 1   
    39    21    22 ar  
    40    21    42 1   
    41    22    43 1   
    42    23    24 2   
    43    23    25 2   
    44    23    26 1   
    45    26    27 1   
    46    26    28 1   
    47    26    44 1   
    48    27    28 1   
    49    27    45 1   
    50    27    46 1   
    51    28    47 1   
    52    28    48 1   
@<TRIPOS>SUBSTRUCTURE
     1 6BU         1 TEMP              0 ****  ****    0 ROOT
