@<TRIPOS>MOLECULE
molecule
   48    52     1     0     0
SMALL
bcc


@<TRIPOS>ATOM
      1 C8           0.0000     0.0000     0.0000 cp         1 6BU       0.013000
      2 C5           1.3550    -0.0000     2.4190 ca         1 6BU      -0.262900
      3 C6          -0.0450    -0.0000     2.3990 ca         1 6BU      -0.055000
      4 N1           3.4060     0.0000     1.5390 na         1 6BU      -0.051100
      5 C2           2.8200    -0.0010     7.2270 cx         1 6BU      -0.238700
      6 N3          -4.2110     0.0410    -2.5110 nu         1 6BU      -0.766500
      7 C4           2.3510    -0.0000     3.4900 cc         1 6BU       0.433500
      8 O2           4.2510    -0.0000     5.3490 o          1 6BU      -0.550100
      9 C3           3.1050    -0.0010     5.7470 c          1 6BU       0.684100
     10 C1           3.1730    -1.2660     8.0140 cx         1 6BU      -0.107400
     11 C            4.0190    -0.0010     8.1770 cx         1 6BU      -0.107400
     12 N            2.0870    -0.0000     4.8640 ns         1 6BU      -0.456400
     13 N2           3.5330     0.0000     2.9320 nd         1 6BU      -0.484100
     14 C10          2.0750     0.0000     1.2090 ca         1 6BU      -0.003200
     15 C9           1.3870     0.0000     0.0000 ca         1 6BU      -0.154000
     16 C7          -0.7080    -0.0010     1.2080 ca         1 6BU      -0.165000
     17 C11         -0.7380     0.0060    -1.2870 cp         1 6BU      -0.026000
     18 C16         -2.1300     0.0180    -1.2930 ca         1 6BU      -0.137000
     19 C15         -2.8140     0.0300    -2.5000 ca         1 6BU       0.136600
     20 C14         -2.1090     0.0300    -3.6970 ca         1 6BU      -0.156000
     21 C13         -0.7270     0.0190    -3.6900 ca         1 6BU      -0.109000
     22 C12         -0.0390     0.0070    -2.4930 ca         1 6BU      -0.128000
     23 S           -5.0390    -0.9620    -3.5370 s6         1 6BU       1.359900
     24 O           -6.4060    -0.6610    -3.2930 o          1 6BU      -0.627300
     25 O1          -4.4520    -0.7230    -4.8100 o          1 6BU      -0.627300
     26 C17         -4.6390    -2.6330    -2.9560 cx         1 6BU      -0.302900
     27 C19         -5.1650    -3.8110    -3.7790 cx         1 6BU      -0.078400
     28 C18         -3.6750    -3.4640    -3.8050 cx         1 6BU      -0.078400
     29 H1          -0.6000    -0.0010     3.3290 ha         1 6BU       0.125000
     30 H2           4.1660     0.0010     0.8880 hn         1 6BU       0.337700
     31 H3           1.9520     0.5330     7.5920 hc         1 6BU       0.087700
     32 H4          -4.7110     0.6700    -1.9150 hn         1 6BU       0.465800
     33 H6           3.6290    -2.0630     7.4390 hc         1 6BU       0.085950
     34 H7           2.5160    -1.4990     8.8430 hc         1 6BU       0.085950
     35 H8           3.8790     0.5380     9.1050 hc         1 6BU       0.085950
     36 H9           4.9920    -0.0260     7.7010 hc         1 6BU       0.085950
     37 H10          1.1410     0.0020     5.1910 hn         1 6BU       0.334500
     38 H12          1.9320     0.0010    -0.9370 ha         1 6BU       0.137000
     39 H13         -1.7910    -0.0010     1.1970 ha         1 6BU       0.134000
     40 H14         -2.6750     0.1070    -0.3610 ha         1 6BU       0.138000
     41 H15         -2.6450     0.0400    -4.6390 ha         1 6BU       0.184000
     42 H16         -0.1820     0.0190    -4.6260 ha         1 6BU       0.138000
     43 H17          1.0440    -0.0020    -2.4910 ha         1 6BU       0.135000
     44 H18         -4.5790    -2.8160    -1.8900 h1         1 6BU       0.128700
     45 H19         -5.4300    -4.6960    -3.2120 hc         1 6BU       0.088700
     46 H20         -5.7220    -3.5470    -4.6700 hc         1 6BU       0.088700
     47 H21         -3.3210    -2.9890    -4.7120 hc         1 6BU       0.088700
     48 H22         -3.0290    -4.1380    -3.2540 hc         1 6BU       0.088700
@<TRIPOS>BOND
     1    25    23 2
     2    28    26 1
     3    28    27 1
     4    26    23 1
     5    26    27 1
     6    23     6 1
     7    23    24 2
     8     6    19 1
     9    19    20 ar
    10    19    18 ar
    11    20    21 ar
    12    18    17 ar
    13    21    22 ar
    14    17    22 ar
    15    17     1 1
    16     1    16 ar
    17     1    15 ar
    18    16     3 ar
    19    15    14 ar
    20     3     2 ar
    21    14     2 ar
    22    14     4 1
    23     2     7 1
    24     8     9 2
    25     4    13 1
    26     7    12 1
    27     7    13 2
    28     9    12 1
    29     9     5 1
    30    10     5 1
    31    10    11 1
    32     5    11 1
    33     3    29 1
    34     4    30 1
    35     5    31 1
    36     6    32 1
    37    10    33 1
    38    10    34 1
    39    11    35 1
    40    11    36 1
    41    12    37 1
    42    15    38 1
    43    16    39 1
    44    18    40 1
    45    20    41 1
    46    21    42 1
    47    22    43 1
    48    26    44 1
    49    27    45 1
    50    27    46 1
    51    28    47 1
    52    28    48 1
@<TRIPOS>SUBSTRUCTURE
     1 6BU         1 TEMP              0 ****  ****    0 ROOT
