@<TRIPOS>MOLECULE
molecule
   39    40     1     0     0
SMALL
bcc


@<TRIPOS>ATOM
      1 C01          0.0000     0.0000     0.0000 c3         1 6BW      -0.042200
      2 C02          1.5000     0.0000     0.0000 c2         1 6BW      -0.174200
      3 C03          2.2250     0.0000     1.0730 c2         1 6BW      -0.110400
      4 C04          1.6600    -0.0090     2.4620 c3         1 6BW      -0.015800
      5 C05          2.4540     0.9520     3.3610 c3         1 6BW      -0.070400
      6 C06          3.0530     0.0960     4.4970 c3         1 6BW      -0.035500
      7 C07          4.4370     0.5800     4.8470 c2         1 6BW      -0.118400
      8 C08          4.6950     1.0000     6.0620 c2         1 6BW      -0.228000
      9 C09          5.5220     0.5820     3.8020 c3         1 6BW      -0.054900
     10 C10          1.8040    -1.4140     3.0760 c3         1 6BW      -0.077400
     11 C11          3.1100    -1.3340     3.9040 c3         1 6BW      -0.080400
     12 C12          0.1850     0.3940     2.4480 c3         1 6BW      -0.060700
     13 C13         -0.4390     0.1070     3.8140 c3         1 6BW      -0.091100
     14 C14         -0.5310    -0.4280     1.3690 c3         1 6BW      -0.076400
     15 C15          3.7230     0.0110     0.9180 c3         1 6BW      -0.058900
     16 H1          -0.3570     0.9980    -0.2250 hc         1 6BW       0.046700
     17 H2          -0.3570    -0.6920    -0.7530 hc         1 6BW       0.046700
     18 H3           2.0080     0.0000    -0.9570 ha         1 6BW       0.118000
     19 H4           1.7920     1.7030     3.7750 hc         1 6BW       0.051700
     20 H5           3.2480     1.4210     2.7930 hc         1 6BW       0.051700
     21 H6           2.4060     0.1170     5.3650 hc         1 6BW       0.057700
     22 H7           5.6890     1.3490     6.3140 ha         1 6BW       0.112000
     23 H8           3.9140     0.9990     6.8130 ha         1 6BW       0.112000
     24 H9           5.3500     1.3940     3.1050 hc         1 6BW       0.041367
     25 H10          6.4840     0.7150     4.2810 hc         1 6BW       0.041367
     26 H11          5.5110    -0.3600     3.2680 hc         1 6BW       0.041367
     27 H12          1.8960    -2.1600     2.2960 hc         1 6BW       0.052200
     28 H13          0.9610    -1.6330     3.7210 hc         1 6BW       0.052200
     29 H14          3.9760    -1.4480     3.2630 hc         1 6BW       0.048200
     30 H15          3.1070    -2.0760     4.6940 hc         1 6BW       0.048200
     31 H16          0.0990     1.4490     2.2170 hc         1 6BW       0.055700
     32 H17          0.2700     0.3540     4.5950 hc         1 6BW       0.035700
     33 H18         -0.6970    -0.9430     3.8800 hc         1 6BW       0.035700
     34 H19         -1.3330     0.7060     3.9360 hc         1 6BW       0.035700
     35 H20         -1.5970    -0.2430     1.4190 hc         1 6BW       0.044200
     36 H21         -0.3310    -1.4820     1.5230 hc         1 6BW       0.044200
     37 H22          4.1090     0.9840     1.1970 hc         1 6BW       0.041033
     38 H23          4.1590    -0.7470     1.5590 hc         1 6BW       0.041033
     39 H24          3.9810    -0.1980    -0.1130 hc         1 6BW       0.041033
@<TRIPOS>BOND
     1     9     7 1   
     2     7     8 2   
     3     7     6 1   
     4    11     6 1   
     5    11    10 1   
     6     6     5 1   
     7    10     4 1   
     8    13    12 1   
     9     5     4 1   
    10     4    12 1   
    11     4     3 1   
    12    12    14 1   
    13     3    15 1   
    14     3     2 2   
    15    14     1 1   
    16     1     2 1   
    17     1    16 1   
    18     1    17 1   
    19     2    18 1   
    20     5    19 1   
    21     5    20 1   
    22     6    21 1   
    23     8    22 1   
    24     8    23 1   
    25     9    24 1   
    26     9    25 1   
    27     9    26 1   
    28    10    27 1   
    29    10    28 1   
    30    11    29 1   
    31    11    30 1   
    32    12    31 1   
    33    13    32 1   
    34    13    33 1   
    35    13    34 1   
    36    14    35 1   
    37    14    36 1   
    38    15    37 1   
    39    15    38 1   
    40    15    39 1   
@<TRIPOS>SUBSTRUCTURE
     1 6BW         1 TEMP              0 ****  ****    0 ROOT
