@<TRIPOS>MOLECULE
6BX
   28    28     1     0     0
SMALL
bcc


@<TRIPOS>ATOM
      1 O01          0.0000     0.0000     0.0000 o          1 6BX      -0.659533
      2 S02          1.4210     0.0000     0.0000 s6         1 6BX       0.957800
      3 C03          2.0570     0.0000     1.6980 c3         1 6BX      -0.079600
      4 C04          1.7380     1.3400     2.3640 c3         1 6BX       0.222100
      5 O05          0.3220     1.4830     2.4910 oh         1 6BX      -0.574800
      6 C06          2.3830     1.3880     3.7510 c3         1 6BX       0.126800
      7 N07          2.1320     2.7000     4.3620 n3         1 6BX      -0.528600
      8 C08          2.3130     2.6440     5.8200 c3         1 6BX       0.109300
      9 C09          1.9860     4.0130     6.4220 c3         1 6BX       0.213400
     10 O10          2.8130     5.0070     5.8110 os         1 6BX      -0.424600
     11 C11          2.6610     5.0880     4.3910 c3         1 6BX       0.213400
     12 C12          2.9950     3.7300     3.7690 c3         1 6BX       0.109300
     13 O13          1.7960    -1.3690    -0.5470 o          1 6BX      -0.659533
     14 O14          2.1530     0.9130    -0.8060 o          1 6BX      -0.659533
     15 H1           3.1300    -0.1480     1.6820 h1         1 6BX       0.055700
     16 H2           1.5910    -0.8010     2.2590 h1         1 6BX       0.055700
     17 H3           2.1290     2.1470     1.7560 h1         1 6BX       0.004700
     18 H4           0.0290     2.1980     1.9510 ho         1 6BX       0.390000
     19 H5           3.4500     1.2300     3.6580 h1         1 6BX       0.013700
     20 H6           1.9560     0.6110     4.3740 h1         1 6BX       0.013700
     21 H8           3.3410     2.3880     6.0470 h1         1 6BX       0.017200
     22 H9           1.6480     1.8980     6.2380 h1         1 6BX       0.017200
     23 H10          2.1750     3.9920     7.4880 h1         1 6BX       0.007450
     24 H11          0.9440     4.2470     6.2380 h1         1 6BX       0.007450
     25 H12          3.3360     5.8400     3.9990 h1         1 6BX       0.007450
     26 H13          1.6380     5.3530     4.1520 h1         1 6BX       0.007450
     27 H14          4.0330     3.4890     3.9660 h1         1 6BX       0.017200
     28 H15          2.8250     3.7710     2.7000 h1         1 6BX       0.017200
@<TRIPOS>BOND
     1     1     2 1   
     2     2     3 1   
     3     2    13 1   
     4     2    14 1   
     5     3     4 1   
     6     3    15 1   
     7     3    16 1   
     8     4     5 1   
     9     4     6 1   
    10     4    17 1   
    11     5    18 1   
    12     6     7 1   
    13     6    19 1   
    14     6    20 1   
    15     7     8 1   
    16     7    12 1   
    17     8     9 1   
    18     8    21 1   
    19     8    22 1   
    20     9    10 1   
    21     9    23 1   
    22     9    24 1   
    23    10    11 1   
    24    11    12 1   
    25    11    25 1   
    26    11    26 1   
    27    12    27 1   
    28    12    28 1   
@<TRIPOS>SUBSTRUCTURE
     1 6BX         1 TEMP              0 ****  ****    0 ROOT
