@<TRIPOS>MOLECULE
6BY
   28    28     1     0     0
SMALL
bcc


@<TRIPOS>ATOM
      1 O01          0.0000     0.0000     0.0000 o          1 6BY      -0.658533
      2 S02          1.5220     0.0000     0.0000 s6         1 6BY       0.956800
      3 C03          1.9750     0.0000     1.7570 c3         1 6BY      -0.078600
      4 C04          3.5000    -0.0000     1.8890 c3         1 6BY       0.222100
      5 O05          4.0330    -1.1670     1.2600 oh         1 6BY      -0.570800
      6 C06          3.8820    -0.0000     3.3710 c3         1 6BY       0.126800
      7 N07          5.3450     0.0120     3.4990 n3         1 6BY      -0.527600
      8 C08          5.8870     1.3490     3.2130 c3         1 6BY       0.109300
      9 C09          7.4160     1.3030     3.3000 c3         1 6BY       0.213900
     10 O10          7.8010     0.8270     4.5920 os         1 6BY      -0.425600
     11 C11          7.2900    -0.4730     4.9030 c3         1 6BY       0.213900
     12 C12          5.7620    -0.4450     4.8330 c3         1 6BY       0.109300
     13 O13          1.8730    -1.2370    -0.6060 o          1 6BY      -0.658533
     14 O14          1.8730     1.2370    -0.6060 o          1 6BY      -0.658533
     15 H1           1.5710    -0.8840     2.2340 h1         1 6BY       0.054700
     16 H2           1.5710     0.8850     2.2340 h1         1 6BY       0.054700
     17 H3           3.9040     0.8840     1.4120 h1         1 6BY       0.003700
     18 H4           4.5580    -0.9130     0.5190 ho         1 6BY       0.389000
     19 H5           3.4850    -0.8890     3.8460 h1         1 6BY       0.013700
     20 H6           3.4700     0.8800     3.8500 h1         1 6BY       0.013700
     21 H8           5.5920     1.6520     2.2160 h1         1 6BY       0.016200
     22 H9           5.5060     2.0560     3.9400 h1         1 6BY       0.016200
     23 H10          7.8000     0.6330     2.5400 h1         1 6BY       0.007200
     24 H11          7.8150     2.2980     3.1480 h1         1 6BY       0.007200
     25 H12          7.6710    -1.1910     4.1860 h1         1 6BY       0.007200
     26 H13          7.6010    -0.7520     5.9020 h1         1 6BY       0.007200
     27 H14          5.3790     0.2370     5.5830 h1         1 6BY       0.016200
     28 H15          5.3740    -1.4410     5.0100 h1         1 6BY       0.016200
@<TRIPOS>BOND
     1     1     2 1   
     2     2     3 1   
     3     2    13 1   
     4     2    14 1   
     5     3     4 1   
     6     3    15 1   
     7     3    16 1   
     8     4     5 1   
     9     4     6 1   
    10     4    17 1   
    11     5    18 1   
    12     6     7 1   
    13     6    19 1   
    14     6    20 1   
    15     7     8 1   
    16     7    12 1   
    17     8     9 1   
    18     8    21 1   
    19     8    22 1   
    20     9    10 1   
    21     9    23 1   
    22     9    24 1   
    23    10    11 1   
    24    11    12 1   
    25    11    25 1   
    26    11    26 1   
    27    12    27 1   
    28    12    28 1   
@<TRIPOS>SUBSTRUCTURE
     1 6BY         1 TEMP              0 ****  ****    0 ROOT
