@<TRIPOS>MOLECULE
molecule
   28    28     1     0     0
SMALL
bcc


@<TRIPOS>ATOM
      1 O01          0.0000     0.0000     0.0000 o          1 6BY      -0.705533
      2 S02          1.5220     0.0000     0.0000 s6         1 6BY       1.254800
      3 C03          1.9750     0.0000     1.7570 c3         1 6BY      -0.271600
      4 C04          3.5000    -0.0000     1.8890 c3         1 6BY       0.176100
      5 O05          4.0330    -1.1670     1.2600 oh         1 6BY      -0.587800
      6 C06          3.8820    -0.0000     3.3710 c3         1 6BY       0.155800
      7 N07          5.3450     0.0120     3.4990 n3         1 6BY      -0.720600
      8 C08          5.8870     1.3490     3.2130 c3         1 6BY       0.124800
      9 C09          7.4160     1.3030     3.3000 c3         1 6BY       0.137400
     10 O10          7.8010     0.8270     4.5920 os         1 6BY      -0.437600
     11 C11          7.2900    -0.4730     4.9030 c3         1 6BY       0.137400
     12 C12          5.7620    -0.4450     4.8330 c3         1 6BY       0.124800
     13 O13          1.8730    -1.2370    -0.6060 o          1 6BY      -0.705533
     14 O14          1.8730     1.2370    -0.6060 o          1 6BY      -0.705533
     15 H1           1.5710    -0.8840     2.2340 h1         1 6BY       0.080200
     16 H2           1.5710     0.8850     2.2340 h1         1 6BY       0.080200
     17 H3           3.9040     0.8840     1.4120 h1         1 6BY       0.030700
     18 H4           4.5580    -0.9130     0.5190 ho         1 6BY       0.400000
     19 H5           3.4850    -0.8890     3.8460 h1         1 6BY       0.039700
     20 H6           3.4700     0.8800     3.8500 h1         1 6BY       0.039700
     21 H8           5.5920     1.6520     2.2160 h1         1 6BY       0.040950
     22 H9           5.5060     2.0560     3.9400 h1         1 6BY       0.040950
     23 H10          7.8000     0.6330     2.5400 h1         1 6BY       0.047200
     24 H11          7.8150     2.2980     3.1480 h1         1 6BY       0.047200
     25 H12          7.6710    -1.1910     4.1860 h1         1 6BY       0.047200
     26 H13          7.6010    -0.7520     5.9020 h1         1 6BY       0.047200
     27 H14          5.3790     0.2370     5.5830 h1         1 6BY       0.040950
     28 H15          5.3740    -1.4410     5.0100 h1         1 6BY       0.040950
@<TRIPOS>BOND
     1    14     2 1   
     2    13     2 1   
     3     2     1 1   
     4     2     3 1   
     5     3     4 1   
     6     4     5 1   
     7     4     6 1   
     8     6     7 1   
     9    12     7 1   
    10    12    11 1   
    11     7     8 1   
    12    11    10 1   
    13     8     9 1   
    14    10     9 1   
    15     3    15 1   
    16     3    16 1   
    17     4    17 1   
    18     5    18 1   
    19     6    19 1   
    20     6    20 1   
    21     8    21 1   
    22     8    22 1   
    23     9    23 1   
    24     9    24 1   
    25    11    25 1   
    26    11    26 1   
    27    12    27 1   
    28    12    28 1   
@<TRIPOS>SUBSTRUCTURE
     1 6BY         1 TEMP              0 ****  ****    0 ROOT
