@<TRIPOS>MOLECULE
6BZ
   55    58     1     0     0
SMALL
bcc


@<TRIPOS>ATOM
      1 C14          0.0000     0.0000     0.0000 ca         1 6BZ      -0.081000
      2 C6           2.0430     1.0820    -2.0340 cc         1 6BZ      -0.212400
      3 C11          1.4040     0.0020     2.3990 ca         1 6BZ      -0.067000
      4 C7           2.7230     1.0720    -3.2080 cd         1 6BZ      -0.016400
      5 C9           1.3910     0.0000     0.0000 ca         1 6BZ      -0.114400
      6 C10          2.0880     0.0000     1.2020 ca         1 6BZ      -0.051000
      7 C12          0.0090     0.0140     2.4030 ca         1 6BZ      -0.009800
      8 C13         -0.6900     0.0080     1.1940 ca         1 6BZ      -0.004600
      9 C3           2.8150    -1.0780    -1.5820 c          1 6BZ       0.452200
     10 C2           3.5080    -1.0490    -2.8120 cc         1 6BZ       0.290300
     11 O4           2.8720    -2.0620    -0.8620 o          1 6BZ      -0.673500
     12 N5           2.0880    -0.0010    -1.2120 n          1 6BZ       0.250800
     13 N8           3.4380     0.0130    -3.5760 nd         1 6BZ      -0.409300
     14 Cl1         -2.4260     0.0230     1.1930 cl         1 6BZ      -0.036400
     15 C16         -0.7290     0.0150     3.6860 cc         1 6BZ      -0.167400
     16 C17         -0.8030     1.1570     4.4400 cd         1 6BZ       0.046800
     17 C18         -1.5200     1.1300     5.6570 ca         1 6BZ      -0.429400
     18 C19         -1.6260     2.2730     6.4650 ca         1 6BZ       0.568200
     19 N20         -2.3080     2.1880     7.5920 nb         1 6BZ      -0.704000
     20 C21         -2.8860     1.0520     7.9630 ca         1 6BZ       0.761900
     21 N22         -2.8140    -0.0520     7.2350 nb         1 6BZ      -0.784000
     22 C23         -2.1480    -0.0600     6.0850 ca         1 6BZ       0.450200
     23 N24         -2.0680    -1.1990     5.3260 n          1 6BZ      -0.010300
     24 C25         -1.3920    -1.2010     4.1600 c          1 6BZ       0.623700
     25 O26         -1.3360    -2.2200     3.4940 o          1 6BZ      -0.664500
     26 C27         -2.7250    -2.4250     5.7840 c3         1 6BZ       0.035000
     27 C28         -4.1560    -2.4700     5.2460 c3         1 6BZ      -0.058400
     28 C29         -4.8430    -3.7510     5.7250 c3         1 6BZ      -0.047200
     29 N30         -6.2160    -3.7930     5.2070 nz         1 6BZ       0.087400
     30 N31         -3.5870     1.0200     9.1520 nu         1 6BZ      -0.450900
     31 C32         -3.6830     2.2260     9.9790 c3         1 6BZ       0.194100
     32 H1          -0.5410    -0.0020    -0.9380 ha         1 6BZ       0.126000
     33 H2           1.4650     1.9530    -1.7510 h4         1 6BZ       0.138000
     34 H3           1.9490     0.0040     3.3350 ha         1 6BZ       0.117000
     35 H4           2.6810     1.9390    -3.8560 h4         1 6BZ       0.136000
     36 H5           3.1710    -0.0050     1.1980 ha         1 6BZ       0.125000
     37 H6           4.7720    -2.0370    -4.2120 hc         1 6BZ       0.020033
     38 H7           3.6850    -3.1100    -3.3190 hc         1 6BZ       0.020033
     39 H8           5.1060    -2.4250    -2.5190 hc         1 6BZ       0.020033
     40 H9          -0.4770     2.1030     4.0240 ha         1 6BZ       0.123000
     41 H10         -1.1620     3.2210     6.2210 h4         1 6BZ      -0.002900
     42 H11         -2.7460    -2.4400     6.8670 h1         1 6BZ       0.059700
     43 H12         -2.1760    -3.2860     5.4220 h1         1 6BZ       0.059700
     44 H13         -4.1350    -2.4550     4.1630 hc         1 6BZ       0.044700
     45 H14         -4.7050    -1.6090     5.6080 hc         1 6BZ       0.044700
     46 H15         -4.2930    -4.6120     5.3640 hx         1 6BZ       0.087200
     47 H16         -4.8650    -3.7650     6.8080 hx         1 6BZ       0.087200
     48 H17         -6.1950    -3.8080     4.2060 hn         1 6BZ       0.223800
     49 H18         -6.7160    -2.9830     5.5180 hn         1 6BZ       0.223800
     50 H20         -4.0220     0.1700     9.4540 hn         1 6BZ       0.291800
     51 H21         -4.1610     3.0150     9.4110 h1         1 6BZ       0.019700
     52 H22         -4.2700     2.0110    10.8640 h1         1 6BZ       0.019700
     53 H23         -2.6900     2.5420    10.2720 h1         1 6BZ       0.019700
     54 H303        -6.6750    -4.6150     5.5460 hn         1 6BZ       0.223800
     55 C1           4.3250    -2.2390    -3.2460 c3         1 6BZ       0.001600
@<TRIPOS>BOND
     1     1     5 ar  
     2     1     8 ar  
     3     1    32 1   
     4     2     4 2   
     5     2    12 1   
     6     2    33 1   
     7     3     6 ar  
     8     3     7 ar  
     9     3    34 1   
    10     4    13 1   
    11     4    35 1   
    12     5     6 ar  
    13     5    12 1   
    14     6    36 1   
    15     7     8 ar  
    16     7    15 1   
    17     8    14 1   
    18     9    10 1   
    19     9    11 2   
    20     9    12 1   
    21    10    13 2   
    22    10    55 1   
    23    15    16 2   
    24    15    24 1   
    25    16    17 1   
    26    16    40 1   
    27    17    18 ar  
    28    17    22 ar  
    29    18    19 ar  
    30    18    41 1   
    31    19    20 ar  
    32    20    21 ar  
    33    20    30 1   
    34    21    22 ar  
    35    22    23 1   
    36    23    24 1   
    37    23    26 1   
    38    24    25 2   
    39    26    27 1   
    40    26    42 1   
    41    26    43 1   
    42    27    28 1   
    43    27    44 1   
    44    27    45 1   
    45    28    29 1   
    46    28    46 1   
    47    28    47 1   
    48    29    48 1   
    49    29    49 1   
    50    29    54 1   
    51    30    31 1   
    52    30    50 1   
    53    31    51 1   
    54    31    52 1   
    55    31    53 1   
    56    37    55 1   
    57    38    55 1   
    58    39    55 1   
@<TRIPOS>SUBSTRUCTURE
     1 6BZ         1 TEMP              0 ****  ****    0 ROOT
