@<TRIPOS>MOLECULE
molecule
   31    31     1     0     0
SMALL
bcc


@<TRIPOS>ATOM
      1 O1           0.0000     0.0000     0.0000 oh         1 6C2      -0.573800
      2 C11          3.9040    -1.3300     0.6610 c3         1 6C2       0.324900
      3 O11          5.3300    -1.3800     0.5960 os         1 6C2      -0.395600
      4 O51          3.3670    -1.2800    -0.6640 os         1 6C2      -0.401600
      5 C51          1.9400    -1.2540    -0.7150 c3         1 6C2       0.039100
      6 C61          1.4890    -1.2310    -2.1530 c          1 6C2       0.899600
      7 O61          0.1810    -1.3060    -2.4470 o          1 6C2      -0.818300
      8 C41          1.4280     0.0000     0.0000 c3         1 6C2       0.125100
      9 C31          1.9410     0.0000     1.4430 c3         1 6C2       0.103100
     10 O31          1.5300     1.2030     2.0960 oh         1 6C2      -0.608800
     11 C21          3.4710    -0.0780     1.4300 c3         1 6C2       0.091700
     12 N2           3.9690    -0.1540     2.8060 ns         1 6C2      -0.576900
     13 C7           5.2190     0.2590     3.0940 c          1 6C2       0.655100
     14 C8           5.7310     0.1810     4.5090 c3         1 6C2      -0.173100
     15 O7           5.9320     0.6940     2.2140 o          1 6C2      -0.585100
     16 C9           5.8430    -2.5700    -0.0070 c3         1 6C2       0.131700
     17 O10          2.3050    -1.1470    -3.0410 o          1 6C2      -0.818300
     18 H13          1.5460    -2.1350    -0.2220 h1         1 6C2       0.035700
     19 H15          1.7950     0.8810    -0.5120 h1         1 6C2       0.061700
     20 H16          1.5400    -0.8590     1.9680 h1         1 6C2       0.033700
     21 H17          0.8610     1.0040     2.7300 ho         1 6C2       0.394000
     22 H18          3.8730     0.8020     0.9420 h1         1 6C2       0.112700
     23 H19          3.3780    -0.5040     3.5340 hn         1 6C2       0.298500
     24 H20          6.7780     0.4590     4.5300 hc         1 6C2       0.050700
     25 H21          5.1650     0.8590     5.1350 hc         1 6C2       0.050700
     26 H22          5.6190    -0.8310     4.8780 hc         1 6C2       0.050700
     27 H23          6.8950    -2.6710     0.2330 h1         1 6C2       0.028033
     28 H24          5.7220    -2.5120    -1.0820 h1         1 6C2       0.028033
     29 H25          5.3020    -3.4290     0.3720 h1         1 6C2       0.028033
     30 H2          -0.3140     0.8600    -0.2240 ho         1 6C2       0.398000
     31 H12          3.5290    -2.2110     1.1670 h2         1 6C2       0.007700
@<TRIPOS>BOND
     1    17     6 1
     2    16     3 1
     3     7     6 1
     4     6     5 1
     5     4     5 1
     6     4     2 1
     7     5     8 1
     8     3     2 1
     9     2    11 1
    10     8     1 1
    11     8     9 1
    12    11     9 1
    13    11    12 1
    14     9    10 1
    15    12    13 1
    16    14    13 1
    17    13    15 2
    18     2    31 1
    19     5    18 1
    20     8    19 1
    21     9    20 1
    22    10    21 1
    23    11    22 1
    24    12    23 1
    25    14    24 1
    26    14    25 1
    27    14    26 1
    28    16    27 1
    29    16    28 1
    30    16    29 1
    31     1    30 1
@<TRIPOS>SUBSTRUCTURE
     1 6C2         1 TEMP              0 ****  ****    0 ROOT
