@<TRIPOS>MOLECULE
6C3
   37    40     1     0     0
SMALL
bcc


@<TRIPOS>ATOM
      1 C1          0.0130    0.0900   -0.0410 ca        1 6C3      0.106600
      2 C2          1.4360    0.0530   -0.0300 ca        1 6C3     -0.132800
      3 C3          2.1090   -0.0160    1.2030 ca        1 6C3     -0.056000
      4 C7          2.1510    0.0680   -1.2920 cc        1 6C3      0.131600
      5 C8          1.4570    0.1030   -2.4690 cd        1 6C3     -0.240000
      6 C9         -0.0200    0.1570   -2.4830 c         1 6C3      0.706700
      7 C10         4.3330   -1.0480   -1.7400 ca        1 6C3     -0.101500
      8 C11         5.7270   -1.0510   -1.6960 ca        1 6C3     -0.132000
      9 C12         6.4150    0.0480   -1.1840 ca        1 6C3     -0.115000
     10 C13         5.7080    1.1540   -0.7130 ca        1 6C3     -0.132000
     11 C14         4.3160    1.1610   -0.7450 ca        1 6C3     -0.101500
     12 C15         3.6190    0.0570   -1.2590 ca        1 6C3     -0.094800
     13 C16         2.2700    1.0340   -4.7680 cc        1 6C3     -0.321600
     14 C19         3.3900    0.8930   -7.1100 c3        1 6C3     -0.132400
     15 C4          1.3990   -0.0390    2.3940 ca        1 6C3     -0.028600
     16 C5         -0.0070    0.0030    2.3890 ca        1 6C3     -0.064000
     17 C6         -0.6930    0.0660    1.1930 ca        1 6C3     -0.184000
     18 N1         -0.6710    0.1500   -1.2430 n         1 6C3     -0.443100
     19 CL1         2.2250   -0.1200    3.8760 cl        1 6C3     -0.083400
     20 O1         -0.7260    0.2180   -3.5060 o         1 6C3     -0.613500
     21 C17         2.0880    0.1020   -3.7680 cd        1 6C3      0.324500
     22 O2          2.6630   -1.1220   -4.2130 os        1 6C3     -0.118100
     23 N2          3.1750   -0.9660   -5.4140 nd        1 6C3     -0.358300
     24 C18         2.9800    0.3060   -5.8230 cc        1 6C3      0.319600
     25 H3          3.2120   -0.0530    1.2110 ha        1 6C3      0.165000
     26 H10         3.7910   -1.9060   -2.1690 ha        1 6C3      0.147000
     27 H11         6.2810   -1.9230   -2.0750 ha        1 6C3      0.139000
     28 H12         7.5150    0.0440   -1.1550 ha        1 6C3      0.136000
     29 H13         6.2490    2.0260   -0.3150 ha        1 6C3      0.139000
     30 H14         3.7590    2.0340   -0.3720 ha        1 6C3      0.147000
     31 H16         1.9600    2.0730   -4.8040 ha        1 6C3      0.178000
     32 H191        2.4790    1.1710   -7.6990 hc        1 6C3      0.057700
     33 H192        4.0040    0.1840   -7.7180 hc        1 6C3      0.057700
     34 H193        3.9900    1.8180   -6.9240 hc        1 6C3      0.057700
     35 H5         -0.5610   -0.0160    3.3420 ha        1 6C3      0.154000
     36 H6         -1.7940    0.0950    1.1960 ha        1 6C3      0.146000
     37 HN1        -1.6680    0.1720   -1.2330 hn        1 6C3      0.338500
@<TRIPOS>BOND
     1    1    2 ar  
     2    1   17 ar  
     3    1   18 1   
     4    2    3 ar  
     5    2    4 1   
     6    3   15 ar  
     7    3   25 1   
     8    4    5 2   
     9    4   12 1   
    10    5    6 1   
    11    5   21 1   
    12    6   18 1   
    13    6   20 2   
    14    7    8 ar  
    15    7   12 ar  
    16    7   26 1   
    17    8    9 ar  
    18    8   27 1   
    19    9   10 ar  
    20    9   28 1   
    21   10   11 ar  
    22   10   29 1   
    23   11   12 ar  
    24   11   30 1   
    25   13   21 2   
    26   13   24 1   
    27   13   31 1   
    28   14   24 1   
    29   14   32 1   
    30   14   33 1   
    31   14   34 1   
    32   15   16 ar  
    33   15   19 1   
    34   16   17 ar  
    35   16   35 1   
    36   17   36 1   
    37   18   37 1   
    38   21   22 1   
    39   22   23 1   
    40   23   24 2   
@<TRIPOS>SUBSTRUCTURE
     1 6C3         1 TEMP              0 ****  ****    0 ROOT
