@<TRIPOS>MOLECULE
molecule
   35    36     1     0     0
SMALL
bcc


@<TRIPOS>ATOM
      1 C2           0.0000     0.0000     0.0000 c3         1 6C4      -0.150700
      2 C4           0.7690    -0.6010     2.2350 c3         1 6C4      -0.083400
      3 C5          -0.5160     1.2340    -0.6930 c          1 6C4       0.662100
      4 C6          -2.3460     2.6380    -1.4810 c3         1 6C4       0.118000
      5 C7          -3.8760     2.6240    -1.4740 c3         1 6C4      -0.094700
      6 C9          -5.6620     2.0620    -3.0370 c3         1 6C4      -0.083400
      7 C11         -4.4170     3.9300    -2.0820 c3         1 6C4      -0.079900
      8 O            0.2630     2.0450    -1.1470 o          1 6C4      -0.610100
      9 C1           1.5390     0.0000     0.0000 c3         1 6C4      -0.077400
     10 C3          -0.4410    -0.0000     1.4780 c3         1 6C4      -0.077400
     11 C            1.9790     0.0000     1.4790 c3         1 6C4      -0.083400
     12 N           -1.8440     1.4370    -0.8070 ns         1 6C4      -0.588900
     13 C10         -5.2500     3.5280    -3.3170 c3         1 6C4      -0.083400
     14 C8          -4.3980     1.4740    -2.3590 c3         1 6C4      -0.079900
     15 H1          -0.3680    -0.8900    -0.4950 hc         1 6C4       0.064700
     16 H2           0.7690    -1.6820     2.1590 hc         1 6C4       0.046450
     17 H3           0.7690    -0.2820     3.2700 hc         1 6C4       0.046450
     18 H4          -1.9910     3.5190    -0.9610 h1         1 6C4       0.054200
     19 H5          -1.9900     2.6530    -2.5040 h1         1 6C4       0.054200
     20 H6          -4.2460     2.5070    -0.4620 hc         1 6C4       0.053700
     21 H7          -6.5090     2.0250    -2.3630 hc         1 6C4       0.045950
     22 H8          -5.8760     1.5410    -3.9630 hc         1 6C4       0.045950
     23 H9          -3.5940     4.5660    -2.3830 hc         1 6C4       0.046700
     24 H10         -5.0450     4.4410    -1.3630 hc         1 6C4       0.046700
     25 H11          1.9090    -0.8890    -0.4960 hc         1 6C4       0.054950
     26 H12          1.9090     0.8890    -0.4960 hc         1 6C4       0.054950
     27 H13         -1.3170    -0.6240     1.6100 hc         1 6C4       0.054950
     28 H14         -0.6330     1.0110     1.8150 hc         1 6C4       0.054950
     29 H15          2.8550    -0.6230     1.6120 hc         1 6C4       0.046450
     30 H16          2.1710     1.0120     1.8160 hc         1 6C4       0.046450
     31 H17         -2.4870     0.7710    -0.4260 hn         1 6C4       0.313500
     32 H18         -6.1280     4.1580    -3.4010 hc         1 6C4       0.045950
     33 H19         -4.6460     3.5860    -4.2150 hc         1 6C4       0.045950
     34 H20         -4.6600     0.6180    -1.7500 hc         1 6C4       0.046700
     35 H21         -3.6590     1.2070    -3.1050 hc         1 6C4       0.046700
@<TRIPOS>BOND
     1     6    14 1
     2     6    13 1
     3    14     5 1
     4    13     7 1
     5    10     2 1
     6    10     1 1
     7     7     5 1
     8     5     4 1
     9     2    11 1
    10    12     4 1
    11    12     3 1
    12     1     3 1
    13     1     9 1
    14     3     8 2
    15    11     9 1
    16     1    15 1
    17     2    16 1
    18     2    17 1
    19     4    18 1
    20     4    19 1
    21     5    20 1
    22     6    21 1
    23     6    22 1
    24     7    23 1
    25     7    24 1
    26     9    25 1
    27     9    26 1
    28    10    27 1
    29    10    28 1
    30    11    29 1
    31    11    30 1
    32    12    31 1
    33    13    32 1
    34    13    33 1
    35    14    34 1
    36    14    35 1
@<TRIPOS>SUBSTRUCTURE
     1 6C4         1 TEMP              0 ****  ****    0 ROOT
