@<TRIPOS>MOLECULE
6C5
   34    35     1     0     0
SMALL
bcc


@<TRIPOS>ATOM
      1 C1           0.0000     0.0000     0.0000 c3         1 6C5       0.062500
      2 C2           1.9460     0.0000     1.3920 c3         1 6C5       0.062500
      3 C3           0.6980     0.0280     2.2990 c3         1 6C5      -0.033900
      4 C5           4.4550    -0.0030    -2.1530 c3         1 6C5       0.072000
      5 C6           5.9250    -0.0020    -1.7260 c3         1 6C5      -0.069700
      6 C7           6.3090    -1.3670    -1.1030 c3         1 6C5      -0.022400
      7 N1           3.6020    -0.0010    -0.9620 ns         1 6C5      -0.228900
      8 C8           7.8440    -1.4150    -1.3020 c3         1 6C5      -0.024400
      9 C9           8.0640    -0.7760    -2.6890 c3         1 6C5      -0.024400
     10 C10          6.8450     0.1220    -2.9580 c3         1 6C5      -0.022400
     11 O            1.7600    -0.0030    -2.2030 o          1 6C5      -0.705100
     12 N            1.4740     0.0000     0.0000 n          1 6C5      -0.192800
     13 C           -0.3960     0.6120     1.3670 c3         1 6C5      -0.033900
     14 H1          -0.3760    -1.0130    -0.0810 h1         1 6C5       0.016700
     15 H2          -0.3760     0.6140    -0.8090 h1         1 6C5       0.016700
     16 H3           2.5520     0.8790     1.5750 h1         1 6C5       0.016700
     17 H4           2.5200    -0.8980     1.5860 h1         1 6C5       0.016700
     18 H5           0.8590     0.6770     3.1510 hc         1 6C5       0.023700
     19 H6           0.4340    -0.9740     2.6160 hc         1 6C5       0.023700
     20 H7           4.2510     0.8810    -2.7450 h1         1 6C5       0.027700
     21 H8           4.2510    -0.8880    -2.7420 h1         1 6C5       0.027700
     22 H9           6.1230     0.8010    -1.0260 hc         1 6C5       0.030700
     23 H10          6.0600    -1.3890    -0.0490 hc         1 6C5       0.017950
     24 H11          5.8290    -2.1790    -1.6360 hc         1 6C5       0.017950
     25 H12          4.0140     0.0420    -0.0510 hn         1 6C5       0.173500
     26 H13          8.3420    -0.8350    -0.5360 hc         1 6C5       0.013950
     27 H14          8.1930    -2.4400    -1.2990 hc         1 6C5       0.013950
     28 H15          8.1290    -1.5480    -3.4460 hc         1 6C5       0.013950
     29 H16          8.9680    -0.1790    -2.6820 hc         1 6C5       0.013950
     30 H17          7.1630     1.1500    -3.0800 hc         1 6C5       0.017950
     31 H18          6.3230    -0.2190    -3.8440 hc         1 6C5       0.017950
     32 H19         -0.3400     1.6930     1.3360 hc         1 6C5       0.023700
     33 H20         -1.3810     0.2760     1.6690 hc         1 6C5       0.023700
     34 C4           2.2600    -0.0010    -1.0950 c          1 6C5       0.613100
@<TRIPOS>BOND
     1     1    12 1   
     2     1    13 1   
     3     1    14 1   
     4     1    15 1   
     5     2     3 1   
     6     2    12 1   
     7     2    16 1   
     8     2    17 1   
     9     3    13 1   
    10     3    18 1   
    11     3    19 1   
    12     4     5 1   
    13     4     7 1   
    14     4    20 1   
    15     4    21 1   
    16     5     6 1   
    17     5    10 1   
    18     5    22 1   
    19     6     8 1   
    20     6    23 1   
    21     6    24 1   
    22     7    25 1   
    23     7    34 1   
    24     8     9 1   
    25     8    26 1   
    26     8    27 1   
    27     9    10 1   
    28     9    28 1   
    29     9    29 1   
    30    10    30 1   
    31    10    31 1   
    32    11    34 2   
    33    12    34 1   
    34    13    32 1   
    35    13    33 1   
@<TRIPOS>SUBSTRUCTURE
     1 6C5         1 TEMP              0 ****  ****    0 ROOT
