@<TRIPOS>MOLECULE
molecule
   34    35     1     0     0
SMALL
bcc


@<TRIPOS>ATOM
      1 C1           0.0000     0.0000     0.0000 c3         1 6C5       0.108500
      2 C2           1.9460     0.0000     1.3920 c3         1 6C5       0.108500
      3 C3           0.6980     0.0280     2.2990 c3         1 6C5      -0.097400
      4 C5           4.4550    -0.0030    -2.1530 c3         1 6C5       0.137000
      5 C6           5.9250    -0.0020    -1.7260 c3         1 6C5      -0.096700
      6 C7           6.3090    -1.3670    -1.1030 c3         1 6C5      -0.077900
      7 N1           3.6020    -0.0010    -0.9620 ns         1 6C5      -0.603900
      8 C8           7.8440    -1.4150    -1.3020 c3         1 6C5      -0.083900
      9 C9           8.0640    -0.7760    -2.6890 c3         1 6C5      -0.083900
     10 C10          6.8450     0.1220    -2.9580 c3         1 6C5      -0.077900
     11 O            1.7600    -0.0030    -2.2030 o          1 6C5      -0.657100
     12 N            1.4740     0.0000     0.0000 n          1 6C5      -0.517800
     13 C           -0.3960     0.6120     1.3670 c3         1 6C5      -0.097400
     14 H1          -0.3760    -1.0130    -0.0810 h1         1 6C5       0.046450
     15 H2          -0.3760     0.6140    -0.8090 h1         1 6C5       0.046450
     16 H3           2.5520     0.8790     1.5750 h1         1 6C5       0.046450
     17 H4           2.5200    -0.8980     1.5860 h1         1 6C5       0.046450
     18 H5           0.8590     0.6770     3.1510 hc         1 6C5       0.055200
     19 H6           0.4340    -0.9740     2.6160 hc         1 6C5       0.055200
     20 H7           4.2510     0.8810    -2.7450 h1         1 6C5       0.053200
     21 H8           4.2510    -0.8880    -2.7420 h1         1 6C5       0.053200
     22 H9           6.1230     0.8010    -1.0260 hc         1 6C5       0.055700
     23 H10          6.0600    -1.3890    -0.0490 hc         1 6C5       0.046700
     24 H11          5.8290    -2.1790    -1.6360 hc         1 6C5       0.046700
     25 H12          4.0140     0.0420    -0.0510 hn         1 6C5       0.308500
     26 H13          8.3420    -0.8350    -0.5360 hc         1 6C5       0.043950
     27 H14          8.1930    -2.4400    -1.2990 hc         1 6C5       0.043950
     28 H15          8.1290    -1.5480    -3.4460 hc         1 6C5       0.043950
     29 H16          8.9680    -0.1790    -2.6820 hc         1 6C5       0.043950
     30 H17          7.1630     1.1500    -3.0800 hc         1 6C5       0.046700
     31 H18          6.3230    -0.2190    -3.8440 hc         1 6C5       0.046700
     32 H19         -0.3400     1.6930     1.3360 hc         1 6C5       0.055200
     33 H20         -1.3810     0.2760     1.6690 hc         1 6C5       0.055200
     34 C4           2.2600    -0.0010    -1.0950 c          1 6C5       0.802100
@<TRIPOS>BOND
     1    11    34 2   
     2     1    13 1   
     3     1    12 1   
     4    13     3 1   
     5    34    12 1   
     6    34     7 1   
     7    12     2 1   
     8     4     7 1   
     9     4     5 1   
    10     3     2 1   
    11     6     5 1   
    12     6     8 1   
    13     5    10 1   
    14     8     9 1   
    15    10     9 1   
    16     1    14 1   
    17     1    15 1   
    18     2    16 1   
    19     2    17 1   
    20     3    18 1   
    21     3    19 1   
    22     4    20 1   
    23     4    21 1   
    24     5    22 1   
    25     6    23 1   
    26     6    24 1   
    27     7    25 1   
    28     8    26 1   
    29     8    27 1   
    30     9    28 1   
    31     9    29 1   
    32    10    30 1   
    33    10    31 1   
    34    13    32 1   
    35    13    33 1   
@<TRIPOS>SUBSTRUCTURE
     1 6C5         1 TEMP              0 ****  ****    0 ROOT
