@<TRIPOS>MOLECULE
6C6
   48    51     1     0     0
SMALL
bcc


@<TRIPOS>ATOM
      1 C65        -0.4920   -0.4760    0.0830 c3        1 6C6     -0.099900
      2 C64         0.9920   -0.7140   -0.1370 c3        1 6C6     -0.076900
      3 C63         1.5880   -1.1690    1.1900 c3        1 6C6     -0.076900
      4 C62         0.4620   -1.2220    2.2090 c3        1 6C6     -0.099900
      5 C61        -0.7040   -0.3990    1.6130 c3        1 6C6      0.208500
      6 N6         -1.9910   -0.8330    2.1020 nh        1 6C6     -0.819900
      7 C6         -3.1430   -0.0850    1.7940 ca        1 6C6      0.681200
      8 N1         -3.0870    1.2630    1.5610 nb        1 6C6     -0.795000
      9 C2         -4.2720    1.9130    1.3870 ca        1 6C6      0.624900
     10 N3         -5.5370    1.4400    1.3880 nb        1 6C6     -0.712000
     11 C4         -5.6030    0.0900    1.5970 ca        1 6C6      0.422800
     12 C5         -4.4110   -0.7400    1.8030 ca        1 6C6     -0.187200
     13 N7         -4.7920   -2.0780    1.9610 nc        1 6C6     -0.607100
     14 C8         -6.1340   -2.0910    1.8630 cd        1 6C6      0.470700
     15 N9         -6.6840   -0.8000    1.6290 na        1 6C6     -0.272000
     16 C1'        -8.0780   -0.4070    1.4860 c3        1 6C6      0.223800
     17 O4'        -8.8020   -0.5890    2.6990 os        1 6C6     -0.435600
     18 C2'        -8.8280   -1.2220    0.3790 c3        1 6C6      0.108100
     19 O2'        -9.6690   -0.3330   -0.3290 oh        1 6C6     -0.620800
     20 C3'        -9.5560   -2.3080    1.1850 c3        1 6C6      0.076100
     21 O3'       -10.8430   -2.5380    0.6610 oh        1 6C6     -0.667800
     22 C4'        -9.6250   -1.7800    2.6330 c3        1 6C6      0.062100
     23 C5'        -9.1180   -2.7900    3.6920 c3        1 6C6      0.224400
     24 O5'        -9.7800   -3.9850    3.6520 os        1 6C6     -0.568200
     25 PA         -9.1090   -5.2600    2.6850 p5        1 6C6      1.345900
     26 OA2       -10.0810   -5.1560    1.5320 o         1 6C6     -0.924167
     27 OA3        -7.7690   -4.6560    2.3060 o         1 6C6     -0.924167
     28 OA1        -9.1170   -6.4660    3.5630 o         1 6C6     -0.924167
     29 H1         -0.8330    0.4720   -0.4000 hc        1 6C6      0.050700
     30 H2         -1.0880   -1.3140   -0.3600 hc        1 6C6      0.050700
     31 H3          1.1540   -1.4870   -0.9290 hc        1 6C6      0.029950
     32 H4          1.4920    0.2250   -0.4840 hc        1 6C6      0.029950
     33 H5          2.3820   -0.4530    1.5220 hc        1 6C6      0.029950
     34 H6          2.0710   -2.1720    1.0850 hc        1 6C6      0.029950
     35 H7          0.1580   -2.2840    2.3920 hc        1 6C6      0.050700
     36 H8          0.7760   -0.7890    3.1900 hc        1 6C6      0.050700
     37 H9         -0.5640    0.6770    1.9290 h1        1 6C6      0.074700
     38 H10        -2.1430   -1.8200    2.0150 hn        1 6C6      0.423800
     39 H11        -4.1750    3.0040    1.2160 h5        1 6C6      0.022100
     40 H12        -6.7780   -3.0300    1.9590 h5        1 6C6      0.215800
     41 H13        -8.1110    0.7010    1.2730 h2        1 6C6      0.092700
     42 H14        -8.1310   -1.6590   -0.3810 h1        1 6C6      0.075700
     43 H15       -10.5720   -0.4860   -0.0210 ho        1 6C6      0.423000
     44 H16        -8.9540   -3.2790    1.1760 h1        1 6C6      0.165700
     45 H17       -11.0030   -3.5000    0.8060 ho        1 6C6      0.497000
     46 H18       -10.6640   -1.4380    2.8810 h1        1 6C6      0.048700
     47 H19        -9.2980   -2.3060    4.6970 h1        1 6C6      0.000200
     48 H20        -8.0080   -2.9260    3.5570 h1        1 6C6      0.000200
@<TRIPOS>BOND
     1    1    2 1   
     2    1    5 1   
     3    1   29 1   
     4    1   30 1   
     5    2    3 1   
     6    2   31 1   
     7    2   32 1   
     8    3    4 1   
     9    3   33 1   
    10    3   34 1   
    11    4    5 1   
    12    4   35 1   
    13    4   36 1   
    14    5    6 1   
    15    5   37 1   
    16    6    7 1   
    17    6   38 1   
    18    7    8 ar  
    19    7   12 ar  
    20    8    9 ar  
    21    9   10 ar  
    22    9   39 1   
    23   10   11 ar  
    24   11   12 ar  
    25   11   15 1   
    26   12   13 1   
    27   13   14 2   
    28   14   15 1   
    29   14   40 1   
    30   15   16 1   
    31   16   17 1   
    32   16   18 1   
    33   16   41 1   
    34   17   22 1   
    35   18   19 1   
    36   18   20 1   
    37   18   42 1   
    38   19   43 1   
    39   20   21 1   
    40   20   22 1   
    41   20   44 1   
    42   21   45 1   
    43   22   23 1   
    44   22   46 1   
    45   23   24 1   
    46   23   47 1   
    47   23   48 1   
    48   24   25 1   
    49   25   26 1   
    50   25   27 1   
    51   25   28 1   
@<TRIPOS>SUBSTRUCTURE
     1 6C6         1 TEMP              0 ****  ****    0 ROOT
