@<TRIPOS>MOLECULE
molecule
   23    22     1     0     0
SMALL
bcc


@<TRIPOS>ATOM
      1 O4           0.0000     0.0000     0.0000 o          1 6C7      -0.934833
      2 P1           1.6100     0.0000     0.0000 p5         1 6C7       1.276900
      3 O6           2.1460     0.0000     1.5180 o          1 6C7      -0.934833
      4 O5           2.1030    -1.2100    -0.6970 o          1 6C7      -0.934833
      5 O2           2.1470     1.3140    -0.7590 os         1 6C7      -0.677800
      6 P3           2.2380     1.7540    -2.3050 p5         1 6C7       1.158800
      7 O8           3.1550     0.7020    -3.1090 o          1 6C7      -0.758500
      8 O7           0.8800     1.7740    -2.8930 o          1 6C7      -0.758500
      9 S9           3.0970     3.6870    -2.4410 ss         1 6C7      -0.521500
     10 C10          3.1150     4.0020    -4.2270 c3         1 6C7       0.099900
     11 C11          1.7180     4.3200    -4.6950 c2         1 6C7      -0.268200
     12 C12          1.4490     5.4980    -5.2010 c2         1 6C7      -0.138400
     13 C13          2.5660     6.4720    -5.4770 c3         1 6C7      -0.058900
     14 C14          0.0240     5.8790    -5.5080 c3         1 6C7      -0.058900
     15 H102         3.4780     3.1220    -4.7450 h1         1 6C7       0.034200
     16 H101         3.7670     4.8400    -4.4390 h1         1 6C7       0.034200
     17 H111         2.4740     3.9760    -5.3920 ha         1 6C7       0.298000
     18 H131         2.1590     7.3670    -5.9330 hc         1 6C7       0.023867
     19 H133         3.0560     6.7320    -4.5460 hc         1 6C7       0.023867
     20 H132         3.2840     6.0180    -6.1490 hc         1 6C7       0.023867
     21 H143        -0.0310     6.3020    -6.5030 hc         1 6C7       0.023867
     22 H141        -0.6050     4.9990    -5.4540 hc         1 6C7       0.023867
     23 H142        -0.3170     6.6110    -4.7850 hc         1 6C7       0.023867
@<TRIPOS>BOND
     1     4     2 1   
     2     1     2 1   
     3     2     3 1   
     4     2     5 1   
     5     8     6 1   
     6     5     6 1   
     7     6     7 1   
     8     6     9 1   
     9     9    10 1   
    10    14    12 1   
    11    10    11 1   
    12    11    12 2   
    13    12    13 1   
    14    10    15 1   
    15    10    16 1   
    16    11    17 1   
    17    13    18 1   
    18    13    19 1   
    19    13    20 1   
    20    14    21 1   
    21    14    22 1   
    22    14    23 1   
@<TRIPOS>SUBSTRUCTURE
     1 6C7         1 TEMP              0 ****  ****    0 ROOT
