@<TRIPOS>MOLECULE
molecule
   32    33     1     0     0
SMALL
bcc


@<TRIPOS>ATOM
      1 O1           0.0000     0.0000     0.0000 o          1 6C9      -0.656100
      2 C5           1.2170     0.0000     0.0000 c          1 6C9       0.802100
      3 N1           1.8900     0.0000     1.1670 n          1 6C9      -0.516800
      4 C9           3.3570     0.0070     1.3130 c3         1 6C9       0.108500
      5 C8           3.6140     0.6150     2.7140 c3         1 6C9      -0.096900
      6 C7           2.4370     0.0230     3.5320 c3         1 6C9      -0.096900
      7 C6           1.2840    -0.0020     2.5060 c3         1 6C9       0.108500
      8 N            1.8910    -0.0040    -1.1670 ns         1 6C9      -0.606900
      9 C4           1.1580    -0.0090    -2.4350 c3         1 6C9       0.139000
     10 C1           2.1520    -0.0140    -3.5990 c3         1 6C9      -0.128700
     11 C2           2.8470    -1.3930    -3.7270 c3         1 6C9       0.128400
     12 O            3.2410    -1.4440    -5.1150 os         1 6C9      -0.414600
     13 C3           2.1630    -0.8760    -5.8780 c3         1 6C9       0.125400
     14 C            1.4170     0.1070    -4.9560 c3         1 6C9      -0.109400
     15 H1           3.7440    -1.0040     1.2660 h1         1 6C9       0.046700
     16 H2           4.5650     0.2830     3.1110 hc         1 6C9       0.055950
     17 H3           2.1910     0.6660     4.3680 hc         1 6C9       0.055950
     18 H4           0.6920    -0.8990     2.6400 h1         1 6C9       0.046700
     19 H5           2.8910     0.0350    -1.1670 hn         1 6C9       0.309500
     20 H6           0.5350    -0.8940    -2.4890 h1         1 6C9       0.056200
     21 H7           0.5350     0.8750    -2.4960 h1         1 6C9       0.056200
     22 H8           2.8860     0.7760    -3.4900 hc         1 6C9       0.067700
     23 H9           3.7170    -1.4420    -3.0840 h1         1 6C9       0.052700
     24 H10          2.1510    -2.1920    -3.5010 h1         1 6C9       0.052700
     25 H11          2.5590    -0.3460    -6.7360 h1         1 6C9       0.048200
     26 H12          0.3800    -0.1870    -4.8510 hc         1 6C9       0.056700
     27 H13          3.8080     0.6260     0.5470 h1         1 6C9       0.046700
     28 H14          3.5550     1.6970     2.6810 hc         1 6C9       0.055950
     29 H15          2.6710    -0.9810     3.8670 hc         1 6C9       0.055950
     30 H16          0.6630     0.8780     2.6300 h1         1 6C9       0.046700
     31 H17          1.4890    -1.6600    -6.2010 h1         1 6C9       0.048200
     32 H18          1.4950     1.1170    -5.3390 hc         1 6C9       0.056700
@<TRIPOS>BOND
     1    12    11 1
     2    12    13 1
     3    11    10 1
     4    13    14 1
     5    10    14 1
     6    10     9 1
     7     4     5 1
     8     4     3 1
     9     5     6 1
    10     8     9 1
    11     8     2 1
    12     3     2 1
    13     3     7 1
    14     6     7 1
    15     2     1 2
    16     4    15 1
    17     5    16 1
    18     6    17 1
    19     7    18 1
    20     8    19 1
    21     9    20 1
    22     9    21 1
    23    10    22 1
    24    11    23 1
    25    11    24 1
    26    13    25 1
    27    14    26 1
    28     4    27 1
    29     5    28 1
    30     6    29 1
    31     7    30 1
    32    13    31 1
    33    14    32 1
@<TRIPOS>SUBSTRUCTURE
     1 6C9         1 TEMP              0 ****  ****    0 ROOT
