@<TRIPOS>MOLECULE
molecule
   68    71     1     0     0
SMALL
bcc


@<TRIPOS>ATOM
      1 O35          0.0000     0.0000     0.0000 o          1 6CA      -0.839300
      2 C33          1.3880     0.0000     0.0000 c          1 6CA       0.875200
      3 O34          2.0020     0.0000     1.1080 o          1 6CA      -0.839300
      4 C32          2.0010     0.0060    -1.3900 ca         1 6CA      -0.111600
      5 C36          1.1630     0.0970    -2.5560 ca         1 6CA      -0.083000
      6 C37          1.6780     0.1100    -3.8390 ca         1 6CA      -0.185000
      7 C38          3.0510     0.0270    -4.0100 ca         1 6CA      -0.131000
      8 C39          3.8800    -0.0600    -2.9130 ca         1 6CA      -0.192000
      9 C31          3.4240    -0.0720    -1.6410 ca         1 6CA       0.177600
     10 N30          4.2910    -0.1470    -0.4650 nu         1 6CA      -0.692000
     11 C27          5.5480    -0.8270    -0.4160 ca         1 6CA       0.171600
     12 C28          6.5480    -0.4140     0.4560 ca         1 6CA      -0.151500
     13 C29          7.7540    -1.1040     0.5720 ca         1 6CA      -0.173000
     14 C26          5.8180    -1.9940    -1.2130 ca         1 6CA      -0.151500
     15 C25          7.0080    -2.6880    -1.1140 ca         1 6CA      -0.173000
     16 C24          8.0100    -2.2320    -0.1930 ca         1 6CA       0.133100
     17 O23          9.0960    -2.9570     0.0790 os         1 6CA      -0.405900
     18 C22         10.1590    -3.0010     1.0830 c3         1 6CA       0.216400
     19 C21         11.2740    -2.0430     1.5480 c3         1 6CA      -0.098400
     20 C20         12.4940    -1.3990     0.8500 c3         1 6CA      -0.074400
     21 C19         13.7560    -2.1520     0.3200 c3         1 6CA      -0.020400
     22 C18         14.4220    -3.1140     1.3450 c3         1 6CA      -0.151400
     23 C17         15.0240    -3.3490     2.7660 c3         1 6CA       0.277400
     24 O16         16.2950    -4.0230     2.7620 os         1 6CA      -0.495900
     25 C11         17.5790    -4.0590     3.2980 ca         1 6CA       0.218100
     26 C12         18.1960    -3.0390     4.0420 ca         1 6CA      -0.198000
     27 C13         19.4840    -3.2710     4.5810 ca         1 6CA      -0.086500
     28 C10         18.2660    -5.2770     3.1190 ca         1 6CA      -0.198000
     29 C9          19.5330    -5.5120     3.6480 ca         1 6CA      -0.086500
     30 C8          20.1580    -4.5040     4.3900 cp         1 6CA      -0.038000
     31 C5          21.4320    -4.7500     4.9030 cp         1 6CA      -0.095000
     32 C6          21.6070    -5.4430     6.1030 ca         1 6CA      -0.135000
     33 C7          22.8820    -5.7200     6.6070 ca         1 6CA      -0.115500
     34 C4          22.5860    -4.3310     4.2030 ca         1 6CA      -0.135000
     35 C3          23.8720    -4.6120     4.7070 ca         1 6CA      -0.115500
     36 C2          24.0200    -5.3540     5.8850 ca         1 6CA      -0.068600
     37 C1          25.3700    -5.7240     6.4280 c          1 6CA       0.871200
     38 O14         26.2670    -6.3170     5.5770 o          1 6CA      -0.834800
     39 O15         25.7150    -5.5250     7.5870 o          1 6CA      -0.834800
     40 H36          0.0900     0.1620    -2.4240 ha         1 6CA       0.155000
     41 H37          1.0200     0.1790    -4.6960 ha         1 6CA       0.109000
     42 H38          3.4720     0.0330    -5.0080 ha         1 6CA       0.105000
     43 H39          4.9490    -0.1220    -3.0780 ha         1 6CA       0.115000
     44 H30          3.9810     0.3130     0.3680 hn         1 6CA       0.483800
     45 H28          6.3820     0.4630     1.0700 ha         1 6CA       0.135000
     46 H29          8.5060    -0.7500     1.2670 ha         1 6CA       0.125000
     47 H26          5.0640    -2.3400    -1.9090 ha         1 6CA       0.135000
     48 H25          7.1840    -3.5650    -1.7250 ha         1 6CA       0.125000
     49 H221        10.6980    -3.9070     0.8340 h1         1 6CA       0.038200
     50 H222         9.6250    -3.2220     2.0000 h1         1 6CA       0.038200
     51 H211        10.7330    -1.1950     1.9500 hc         1 6CA       0.038200
     52 H212        11.7060    -2.5490     2.4030 hc         1 6CA       0.038200
     53 H201        12.0950    -0.8610    -0.0010 hc         1 6CA       0.036200
     54 H202        12.8670    -0.6530     1.5410 hc         1 6CA       0.036200
     55 H191        13.4680    -2.7280    -0.5520 hc         1 6CA       0.045200
     56 H192        14.4900    -1.4150     0.0160 hc         1 6CA       0.045200
     57 H181        15.2520    -3.4650     0.7430 hc         1 6CA       0.035200
     58 H182        13.6980    -3.9200     1.3260 hc         1 6CA       0.035200
     59 H171        15.1470    -2.3880     3.2510 h1         1 6CA       0.028200
     60 H172        14.3230    -3.9400     3.3430 h1         1 6CA       0.028200
     61 H12         17.6960    -2.0910     4.1980 ha         1 6CA       0.130000
     62 H13         19.9660    -2.4890     5.1550 ha         1 6CA       0.140500
     63 H10         17.7890    -6.0630     2.5460 ha         1 6CA       0.130000
     64 H9          20.0270    -6.4630     3.4880 ha         1 6CA       0.140500
     65 H6          20.7360    -5.7720     6.6560 ha         1 6CA       0.110500
     66 H7          22.9880    -6.2220     7.5620 ha         1 6CA       0.138500
     67 H4          22.4820    -3.7890     3.2710 ha         1 6CA       0.110500
     68 H3          24.7480    -4.2520     4.1820 ha         1 6CA       0.138500
@<TRIPOS>BOND
     1     1     2 1   
     2     2     3 1   
     3     2     4 1   
     4     4     5 ar  
     5     4     9 ar  
     6     5     6 ar  
     7     5    40 1   
     8     6     7 ar  
     9     6    41 1   
    10     7     8 ar  
    11     7    42 1   
    12     8     9 ar  
    13     8    43 1   
    14     9    10 1   
    15    10    11 1   
    16    10    44 1   
    17    11    12 ar  
    18    11    14 ar  
    19    12    13 ar  
    20    12    45 1   
    21    13    16 ar  
    22    13    46 1   
    23    14    15 ar  
    24    14    47 1   
    25    15    16 ar  
    26    15    48 1   
    27    16    17 1   
    28    17    18 1   
    29    18    19 1   
    30    18    49 1   
    31    18    50 1   
    32    19    20 1   
    33    19    51 1   
    34    19    52 1   
    35    20    21 1   
    36    20    53 1   
    37    20    54 1   
    38    21    22 1   
    39    21    55 1   
    40    21    56 1   
    41    22    23 1   
    42    22    57 1   
    43    22    58 1   
    44    23    24 1   
    45    23    59 1   
    46    23    60 1   
    47    24    25 1   
    48    25    26 ar  
    49    25    28 ar  
    50    26    27 ar  
    51    26    61 1   
    52    27    30 ar  
    53    27    62 1   
    54    28    29 ar  
    55    28    63 1   
    56    29    30 ar  
    57    29    64 1   
    58    30    31 1   
    59    31    32 ar  
    60    31    34 ar  
    61    32    33 ar  
    62    32    65 1   
    63    33    36 ar  
    64    33    66 1   
    65    34    35 ar  
    66    34    67 1   
    67    35    36 ar  
    68    35    68 1   
    69    36    37 1   
    70    37    38 1   
    71    37    39 1   
@<TRIPOS>SUBSTRUCTURE
     1 6CA         1 TEMP              0 ****  ****    0 ROOT
