@<TRIPOS>MOLECULE
molecule
   50    53     1     0     0
SMALL
bcc


@<TRIPOS>ATOM
      1 C1           0.0000     0.0000     0.0000 ca         1 6CB       0.479600
      2 C2           1.3780     0.0000     0.0000 ca         1 6CB      -0.300300
      3 C3           2.0590     0.0000     1.2230 cp         1 6CB       0.032000
      4 C11          4.0990     2.3480     3.9550 c          1 6CB       0.589600
      5 C12          3.3310     3.2730     4.8140 ca         1 6CB       0.302800
      6 C13          1.4300     4.5480     5.1480 cp         1 6CB       0.428800
      7 C14          1.8940     4.9850     6.3930 ca         1 6CB      -0.178300
      8 C15          3.1210     4.5490     6.8500 ca         1 6CB      -0.168000
      9 C16          3.8590     3.6740     6.0490 ca         1 6CB       0.137300
     10 C17          0.1160     5.0200     4.6490 cp         1 6CB      -0.176500
     11 C18         -1.0030     4.9800     5.4800 ca         1 6CB      -0.093000
     12 C19         -2.2230     5.4210     5.0120 ca         1 6CB      -0.147000
     13 C20         -2.3410     5.9010     3.7200 ca         1 6CB      -0.096000
     14 C21         -1.2360     5.9430     2.8890 ca         1 6CB      -0.169000
     15 C22         -0.0060     5.5110     3.3490 ca         1 6CB       0.164900
     16 F            1.0740     5.5520     2.5360 f          1 6CB      -0.126900
     17 N4           2.1480     3.7200     4.4090 nb         1 6CB      -0.640000
     18 N5           5.0970     3.2100     6.4690 nv         1 6CB      -0.916200
     19 O            5.2240     2.0180     4.2730 o          1 6CB      -0.611100
     20 C10          4.2410     0.9290     2.0540 ca         1 6CB      -0.052700
     21 C9           5.6280     0.8910     2.0630 ca         1 6CB       0.409200
     22 N2           6.2830     0.0040     1.3430 nb         1 6CB      -0.672000
     23 C8           5.6610    -0.8810     0.5860 ca         1 6CB       0.393200
     24 C7           4.2840    -0.9160     0.5170 ca         1 6CB      -0.221300
     25 C6           3.5420     0.0000     1.2670 cp         1 6CB      -0.048000
     26 C4           1.3090    -0.0010     2.3980 ca         1 6CB      -0.323300
     27 C5          -0.0780    -0.0020     2.3110 ca         1 6CB       0.714200
     28 N           -0.8400    -0.0030     3.4730 nv         1 6CB      -1.010500
     29 N1          -0.6800    -0.0010     1.1320 nb         1 6CB      -0.767000
     30 C           -0.7420     0.0070    -1.3120 c3         1 6CB      -0.142400
     31 H3           1.9260     0.0010    -0.9340 ha         1 6CB       0.142000
     32 H11          1.2980     5.6630     6.9910 ha         1 6CB       0.144000
     33 H12          3.5020     4.8750     7.8100 ha         1 6CB       0.148000
     34 H15         -0.9130     4.6050     6.4930 ha         1 6CB       0.137000
     35 H16         -3.0920     5.3900     5.6580 ha         1 6CB       0.136000
     36 H17         -3.3030     6.2430     3.3570 ha         1 6CB       0.138000
     37 H18         -1.3330     6.3220     1.8780 ha         1 6CB       0.149000
     38 H13          5.7600     3.8440     6.8680 hn         1 6CB       0.446300
     39 H14          5.3140     2.2350     6.4040 hn         1 6CB       0.446300
     40 H10          2.6280     2.1530     2.5550 hn         1 6CB       0.357500
     41 H9           6.1790     1.5990     2.6700 h4         1 6CB       0.067100
     42 H8           6.2420    -1.5910     0.0090 h4         1 6CB       0.023100
     43 H7           3.7840    -1.6470    -0.1070 ha         1 6CB       0.144000
     44 H4           1.7990    -0.0010     3.3640 ha         1 6CB       0.143000
     45 H6          -0.3900    -0.0010     4.3670 hn         1 6CB       0.439800
     46 H5          -1.8390     0.0110     3.4170 hn         1 6CB       0.439800
     47 H1          -1.8090     0.0100    -1.1230 hc         1 6CB       0.052700
     48 H           -0.4730     0.8930    -1.8740 hc         1 6CB       0.052700
     49 H2          -0.4790    -0.8760    -1.8810 hc         1 6CB       0.052700
     50 N3           3.5510     1.8710     2.8210 ns         1 6CB      -0.448100
@<TRIPOS>BOND
     1    28    27 1   
     2    29    27 ar  
     3    29     1 ar  
     4    13    12 ar  
     5    13    14 ar  
     6    30     1 1   
     7    27    26 ar  
     8    12    11 ar  
     9     1     2 ar  
    10    14    15 ar  
    11    26     3 ar  
    12     2     3 ar  
    13    11    10 ar  
    14    15    10 ar  
    15    15    16 1   
    16     3    25 1   
    17    10     6 1   
    18    24    25 ar  
    19    24    23 ar  
    20    25    20 ar  
    21     6    17 ar  
    22     6     7 ar  
    23    17     5 ar  
    24    23    22 ar  
    25    20    50 1   
    26    20    21 ar  
    27    50     4 1   
    28     7     8 ar  
    29    22    21 ar  
    30     5     4 1   
    31     5     9 ar  
    32     4    19 2   
    33     8     9 ar  
    34     9    18 1   
    35     2    31 1   
    36     7    32 1   
    37     8    33 1   
    38    11    34 1   
    39    12    35 1   
    40    13    36 1   
    41    14    37 1   
    42    18    38 1   
    43    18    39 1   
    44    50    40 1   
    45    21    41 1   
    46    23    42 1   
    47    24    43 1   
    48    26    44 1   
    49    28    45 1   
    50    28    46 1   
    51    30    47 1   
    52    30    48 1   
    53    30    49 1   
@<TRIPOS>SUBSTRUCTURE
     1 6CB         1 TEMP              0 ****  ****    0 ROOT
