@<TRIPOS>MOLECULE
6CB
   50    53     1     0     0
SMALL
bcc


@<TRIPOS>ATOM
      1 C1           0.0000     0.0000     0.0000 ca         1 6CB       0.432600
      2 C2           1.3780     0.0000     0.0000 ca         1 6CB      -0.280300
      3 C3           2.0590     0.0000     1.2230 cp         1 6CB       0.046000
      4 C11          4.0990     2.3480     3.9550 c          1 6CB       0.490600
      5 C12          3.3310     3.2730     4.8140 ca         1 6CB       0.230800
      6 C13          1.4300     4.5480     5.1480 cp         1 6CB       0.370800
      7 C14          1.8940     4.9850     6.3930 ca         1 6CB      -0.136300
      8 C15          3.1210     4.5490     6.8500 ca         1 6CB      -0.156000
      9 C16          3.8590     3.6740     6.0490 ca         1 6CB       0.003300
     10 C17          0.1160     5.0200     4.6490 cp         1 6CB      -0.168500
     11 C18         -1.0030     4.9800     5.4800 ca         1 6CB      -0.071000
     12 C19         -2.2230     5.4210     5.0120 ca         1 6CB      -0.116000
     13 C20         -2.3410     5.9010     3.7200 ca         1 6CB      -0.071000
     14 C21         -1.2360     5.9430     2.8890 ca         1 6CB      -0.134000
     15 C22         -0.0060     5.5110     3.3490 ca         1 6CB       0.134900
     16 F            1.0740     5.5520     2.5360 f          1 6CB      -0.123900
     17 N4           2.1480     3.7200     4.4090 nb         1 6CB      -0.510000
     18 N5           5.0970     3.2100     6.4690 nv         1 6CB      -0.439200
     19 O            5.2240     2.0180     4.2730 o          1 6CB      -0.663100
     20 C10          4.2410     0.9290     2.0540 ca         1 6CB      -0.196700
     21 C9           5.6280     0.8910     2.0630 ca         1 6CB       0.381200
     22 N2           6.2830     0.0040     1.3430 nb         1 6CB      -0.564000
     23 C8           5.6610    -0.8810     0.5860 ca         1 6CB       0.381200
     24 C7           4.2840    -0.9160     0.5170 ca         1 6CB      -0.191300
     25 C6           3.5420     0.0000     1.2670 cp         1 6CB      -0.045000
     26 C4           1.3090    -0.0010     2.3980 ca         1 6CB      -0.317300
     27 C5          -0.0780    -0.0020     2.3110 ca         1 6CB       0.520200
     28 N           -0.8400    -0.0030     3.4730 nv         1 6CB      -0.529500
     29 N1          -0.6800    -0.0010     1.1320 nb         1 6CB      -0.650000
     30 C           -0.7420     0.0070    -1.3120 c3         1 6CB      -0.044400
     31 H3           1.9260     0.0010    -0.9340 ha         1 6CB       0.124000
     32 H11          1.2980     5.6630     6.9910 ha         1 6CB       0.115000
     33 H12          3.5020     4.8750     7.8100 ha         1 6CB       0.119000
     34 H15         -0.9130     4.6050     6.4930 ha         1 6CB       0.109000
     35 H16         -3.0920     5.3900     5.6580 ha         1 6CB       0.107000
     36 H17         -3.3030     6.2430     3.3570 ha         1 6CB       0.107000
     37 H18         -1.3330     6.3220     1.8780 ha         1 6CB       0.121000
     38 H13          5.7600     3.8440     6.8680 hn         1 6CB       0.285800
     39 H14          5.3140     2.2350     6.4040 hn         1 6CB       0.285800
     40 H10          2.6280     2.1530     2.5550 hn         1 6CB       0.201500
     41 H9           6.1790     1.5990     2.6700 h4         1 6CB       0.035100
     42 H8           6.2420    -1.5910     0.0090 h4         1 6CB      -0.020900
     43 H7           3.7840    -1.6470    -0.1070 ha         1 6CB       0.118000
     44 H4           1.7990    -0.0010     3.3640 ha         1 6CB       0.124000
     45 H6          -0.3900    -0.0010     4.3670 hn         1 6CB       0.270300
     46 H5          -1.8390     0.0110     3.4170 hn         1 6CB       0.270300
     47 H1          -1.8090     0.0100    -1.1230 hc         1 6CB       0.014033
     48 H           -0.4730     0.8930    -1.8740 hc         1 6CB       0.014033
     49 H2          -0.4790    -0.8760    -1.8810 hc         1 6CB       0.014033
     50 N3           3.5510     1.8710     2.8210 ns         1 6CB      -0.000100
@<TRIPOS>BOND
     1     1     2 ar  
     2     1    29 ar  
     3     1    30 1   
     4     2     3 ar  
     5     2    31 1   
     6     3    25 1   
     7     3    26 ar  
     8     4     5 1   
     9     4    19 2   
    10     4    50 1   
    11     5     9 ar  
    12     5    17 ar  
    13     6     7 ar  
    14     6    10 1   
    15     6    17 ar  
    16     7     8 ar  
    17     7    32 1   
    18     8     9 ar  
    19     8    33 1   
    20     9    18 1   
    21    10    11 ar  
    22    10    15 ar  
    23    11    12 ar  
    24    11    34 1   
    25    12    13 ar  
    26    12    35 1   
    27    13    14 ar  
    28    13    36 1   
    29    14    15 ar  
    30    14    37 1   
    31    15    16 1   
    32    18    38 1   
    33    18    39 1   
    34    20    21 ar  
    35    20    25 ar  
    36    20    50 1   
    37    21    22 ar  
    38    21    41 1   
    39    22    23 ar  
    40    23    24 ar  
    41    23    42 1   
    42    24    25 ar  
    43    24    43 1   
    44    26    27 ar  
    45    26    44 1   
    46    27    28 1   
    47    27    29 ar  
    48    28    45 1   
    49    28    46 1   
    50    30    47 1   
    51    30    48 1   
    52    30    49 1   
    53    40    50 1   
@<TRIPOS>SUBSTRUCTURE
     1 6CB         1 TEMP              0 ****  ****    0 ROOT
