@<TRIPOS>MOLECULE
molecule
   26    27     1     0     0
SMALL
bcc


@<TRIPOS>ATOM
      1 C13          0.0000     0.0000     0.0000 cc         1 6CC      -0.181400
      2 C5           3.6190    -0.0030    -3.5930 ca         1 6CC       0.075400
      3 C6           4.2650    -0.0020    -2.3680 ca         1 6CC      -0.336500
      4 S7           6.0250    -0.0040    -2.3010 sy         1 6CC       1.238200
      5 O9           6.4610     1.0180    -3.1880 o          1 6CC      -0.512300
      6 O10          6.3750    -0.0380    -0.9240 o          1 6CC      -0.512300
      7 N8           6.5390    -1.4370    -2.9500 nz         1 6CC      -0.810500
      8 C2           3.5310    -0.0020    -1.1990 ca         1 6CC       0.017000
      9 C4           2.2360     0.0030    -3.6520 ca         1 6CC      -0.110000
     10 C3           1.4930     0.0030    -2.4890 ca         1 6CC      -0.024000
     11 C1           2.1380    -0.0010    -1.2530 ca         1 6CC      -0.095500
     12 C12          1.3450     0.0000     0.0000 cd         1 6CC       0.467800
     13 N16          1.9140     0.0000     1.2050 nd         1 6CC      -0.786000
     14 C15          1.1180     0.0020     2.2290 cc         1 6CC       0.775300
     15 N17          1.5210     0.0040     3.5550 nv         1 6CC      -0.973500
     16 S14         -0.5530     0.0090     1.6730 ss         1 6CC      -0.290300
     17 H1          -1.0030    -0.0160    -0.4090 h4         1 6CC       0.204000
     18 H2           7.4860    -1.6080    -2.6750 hn         1 6CC       0.493467
     19 H3           5.9570    -2.1810    -2.6200 hn         1 6CC       0.493467
     20 H4           4.0360    -0.0030    -0.2410 ha         1 6CC       0.195000
     21 H5           1.7360     0.0060    -4.6130 ha         1 6CC       0.175000
     22 H6           0.4110     0.0060    -2.5360 ha         1 6CC       0.173000
     23 H7           0.8370    -0.0110     4.2860 hn         1 6CC       0.458800
     24 H8           2.4950     0.0200     3.7820 hn         1 6CC       0.458800
     25 H83          6.4670    -1.3970    -3.9480 hn         1 6CC       0.493467
     26 Cl1          4.5480    -0.0020    -5.0590 cl         1 6CC      -0.085400
@<TRIPOS>BOND
     1    16    14 1   
     2    16     1 1   
     3    15    14 1   
     4    14    13 2   
     5     1    12 2   
     6    13    12 1   
     7    12    11 1   
     8    11     8 ar  
     9    11    10 ar  
    10     8     3 ar  
    11    10     9 ar  
    12     6     4 2   
    13     7     4 1   
    14     3     4 1   
    15     3     2 ar  
    16     9     2 ar  
    17     4     5 2   
    18     2    26 1   
    19     1    17 1   
    20     7    18 1   
    21     7    19 1   
    22     8    20 1   
    23     9    21 1   
    24    10    22 1   
    25    15    23 1   
    26    15    24 1   
    27    25     7 1   
@<TRIPOS>SUBSTRUCTURE
     1 6CC         1 TEMP              0 ****  ****    0 ROOT
