@<TRIPOS>MOLECULE
6CD
   50    53     1     0     0
SMALL
bcc


@<TRIPOS>ATOM
      1 C01          0.0000     0.0000     0.0000 c3         1 6CD      -0.014100
      2 C02          1.5300     0.0000     0.0000 c3         1 6CD       0.148000
      3 N03          2.0360     0.0000     1.3780 ns         1 6CD      -0.210900
      4 C04          2.7650    -1.1150     1.5610 c          1 6CD       0.682100
      5 O05          3.3240    -1.4190     2.5970 o          1 6CD      -0.683500
      6 C06          2.7880    -1.9160     0.3290 cc         1 6CD      -0.254600
      7 C07          3.2800    -3.1090    -0.2630 cc         1 6CD      -0.046000
      8 C08          2.8270    -3.1350    -1.5430 cd         1 6CD      -0.277300
      9 N09          2.0750    -2.0050    -1.7620 na         1 6CD       0.500900
     10 C10          2.0490    -1.2660    -0.6370 cd         1 6CD      -0.382600
     11 C11          3.0960    -4.1970    -2.5330 ca         1 6CD      -0.028000
     12 C12          2.0590    -4.7270    -3.2940 ca         1 6CD      -0.056000
     13 C13          2.3040    -5.7240    -4.2240 ca         1 6CD      -0.156000
     14 C14          3.5780    -6.2130    -4.4160 ca         1 6CD       0.003000
     15 C15          4.6380    -5.7000    -3.6680 ca         1 6CD      -0.254600
     16 C16          6.0140    -6.1890    -3.8380 c          1 6CD       0.650100
     17 O17          6.2780    -7.0630    -4.6440 o          1 6CD      -0.669500
     18 N18          6.9760    -5.6310    -3.0670 n          1 6CD      -0.007300
     19 C19          8.3640    -6.0810    -3.1960 c3         1 6CD       0.041300
     20 C20          6.6610    -4.6520    -2.1710 cc         1 6CD       0.426800
     21 N21          7.6680    -4.1140    -1.4090 nu         1 6CD      -0.457200
     22 C22          7.3520    -3.1440    -0.3570 c3         1 6CD       0.140200
     23 C23          6.5990    -1.9590    -0.9650 c3         1 6CD      -0.028100
     24 C24          6.4780    -3.8110     0.7060 c3         1 6CD      -0.028100
     25 C25          8.6490    -2.6480     0.2850 c3         1 6CD      -0.028100
     26 N26          5.4430    -4.2020    -2.0030 nd         1 6CD      -0.643100
     27 C27          4.4080    -4.6800    -2.7190 ca         1 6CD       0.227400
     28 H1          -0.3610     0.8750     0.5260 hc         1 6CD       0.011033
     29 H2          -0.3610    -0.8930     0.4950 hc         1 6CD       0.011033
     30 H3          -0.3610     0.0180    -1.0210 hc         1 6CD       0.011033
     31 H4           1.9080     0.8640    -0.5330 h1         1 6CD       0.023700
     32 H5           1.8670     0.7090     2.0640 hn         1 6CD       0.203500
     33 H6           3.9000    -3.8570     0.2160 ha         1 6CD       0.147000
     34 H7           1.6200    -1.7700    -2.6220 hn         1 6CD       0.097700
     35 H8           1.0500    -4.3560    -3.1580 ha         1 6CD       0.097000
     36 H9           1.4840    -6.1250    -4.8070 ha         1 6CD       0.108000
     37 H10          3.7560    -6.9920    -5.1470 ha         1 6CD       0.121000
     38 H11          8.4210    -6.8690    -3.9370 h1         1 6CD       0.028700
     39 H12          8.9860    -5.2490    -3.5040 h1         1 6CD       0.028700
     40 H13          8.7120    -6.4570    -2.2410 h1         1 6CD       0.028700
     41 H14          8.6160    -4.3990    -1.5580 hn         1 6CD       0.298800
     42 H15          7.0250    -1.7170    -1.9310 hc         1 6CD       0.021478
     43 H16          5.5540    -2.2180    -1.0860 hc         1 6CD       0.021478
     44 H17          6.6840    -1.1010    -0.3080 hc         1 6CD       0.021478
     45 H18          7.1030    -4.3860     1.3780 hc         1 6CD       0.021478
     46 H19          5.7630    -4.4680     0.2260 hc         1 6CD       0.021478
     47 H20          5.9480    -3.0500     1.2680 hc         1 6CD       0.021478
     48 H21          8.4140    -1.9720     1.0980 hc         1 6CD       0.021478
     49 H22          9.2080    -3.4930     0.6680 hc         1 6CD       0.021478
     50 H23          9.2430    -2.1280    -0.4570 hc         1 6CD       0.021478
@<TRIPOS>BOND
     1     1     2 1   
     2     1    28 1   
     3     1    29 1   
     4     1    30 1   
     5     2     3 1   
     6     2    10 1   
     7     2    31 1   
     8     3     4 1   
     9     3    32 1   
    10     4     5 2   
    11     4     6 1   
    12     6     7 1   
    13     6    10 2   
    14     7     8 2   
    15     7    33 1   
    16     8     9 1   
    17     8    11 1   
    18     9    10 1   
    19     9    34 1   
    20    11    12 ar  
    21    11    27 ar  
    22    12    13 ar  
    23    12    35 1   
    24    13    14 ar  
    25    13    36 1   
    26    14    15 ar  
    27    14    37 1   
    28    15    16 1   
    29    15    27 ar  
    30    16    17 2   
    31    16    18 1   
    32    18    19 1   
    33    18    20 1   
    34    19    38 1   
    35    19    39 1   
    36    19    40 1   
    37    20    21 1   
    38    20    26 2   
    39    21    22 1   
    40    21    41 1   
    41    22    23 1   
    42    22    24 1   
    43    22    25 1   
    44    23    42 1   
    45    23    43 1   
    46    23    44 1   
    47    24    45 1   
    48    24    46 1   
    49    24    47 1   
    50    25    48 1   
    51    25    49 1   
    52    25    50 1   
    53    26    27 1   
@<TRIPOS>SUBSTRUCTURE
     1 6CD         1 TEMP              0 ****  ****    0 ROOT
