@<TRIPOS>MOLECULE
molecule
   59    63     1     0     0
SMALL
bcc


@<TRIPOS>ATOM
      1 C8           0.0000     0.0000     0.0000 c3         1 6CE       0.075100
      2 C5           2.7820     1.2270     1.8130 c3         1 6CE       0.143700
      3 C6           1.9260     0.0000     1.4930 c3         1 6CE       0.107100
      4 C2           7.7450    -1.0540     5.8390 c3         1 6CE      -0.027200
      5 C4           9.8590    -2.2860     4.8120 ca         1 6CE      -0.096800
      6 NE2          5.4920    -0.5400     5.0260 n7         1 6CE      -0.918300
      7 P1           4.8560    -0.3320     3.4830 p5         1 6CE       1.059700
      8 O2           6.0240     0.1400     2.4790 o          1 6CE      -0.740500
      9 O3           4.2840    -1.6110     3.0070 o          1 6CE      -0.740500
     10 S4           3.3360     1.1450     3.5390 ss         1 6CE      -0.562500
     11 C7           1.5470     0.0000     0.0000 c3         1 6CE       0.094100
     12 C9          -0.3250    -0.5390     1.4160 c3         1 6CE       0.233800
     13 O10          0.7010     0.0490     2.2440 os         1 6CE      -0.366600
     14 N11         -1.6530    -0.0940     1.8460 na         1 6CE      -0.169900
     15 C12         -1.9280     1.0030     2.6090 cc         1 6CE       0.495400
     16 N13         -3.2150     1.0920     2.7940 nd         1 6CE      -0.624000
     17 C14         -3.8270     0.0620     2.1640 cd         1 6CE       0.261800
     18 C15         -2.8370    -0.6960     1.5510 cc         1 6CE      -0.017000
     19 N16         -3.2030    -1.8090     0.8370 na         1 6CE      -0.649600
     20 C17         -4.5110    -2.1630     0.7330 cd         1 6CE       0.678100
     21 N18         -5.4790    -1.4720     1.2970 nc         1 6CE      -0.671100
     22 C19         -5.2210    -0.3660     2.0120 c          1 6CE       0.632000
     23 N20         -4.8340    -3.2820     0.0120 nz         1 6CE      -0.742600
     24 O21         -6.1270     0.2670     2.5310 o          1 6CE      -0.456100
     25 O22          2.0470    -1.1750    -0.6420 oh         1 6CE      -0.570800
     26 O23         -0.5100    -0.8740    -1.0090 oh         1 6CE      -0.611800
     27 C1           6.5520    -1.5590     5.0260 c3         1 6CE       0.231800
     28 C3           8.8310    -2.0990     5.8390 cd         1 6CE      -0.131400
     29 C13          9.0400    -3.0340     6.7790 cc         1 6CE      -0.115100
     30 C22         10.6460    -3.3690     5.2430 ca         1 6CE      -0.040200
     31 N23         10.1190    -3.8050     6.4380 na         1 6CE      -0.190400
     32 C24         10.1610    -1.6390     3.6120 ca         1 6CE      -0.060000
     33 C25         11.2170    -2.0670     2.8580 ca         1 6CE      -0.167000
     34 C26         11.9930    -3.1400     3.2760 ca         1 6CE      -0.111000
     35 C27         11.7210    -3.7830     4.4640 ca         1 6CE      -0.158000
     36 H1          -0.3820     1.0060    -0.1230 h1         1 6CE       0.062700
     37 H2           3.6440     1.2460     1.1580 h1         1 6CE       0.073200
     38 H3           2.1950     2.1250     1.6650 h1         1 6CE       0.073200
     39 H4           2.4680    -0.9070     1.7340 h1         1 6CE       0.151700
     40 H5           8.1220    -0.1400     5.3970 hc         1 6CE       0.046700
     41 H6           7.4310    -0.8600     6.8580 hc         1 6CE       0.046700
     42 H7           5.5450     0.2360     5.6550 hn         1 6CE       0.400800
     43 H9           1.9240     0.8930    -0.4840 h1         1 6CE       0.059700
     44 H10         -0.2530    -1.6200     1.4350 h2         1 6CE       0.093700
     45 H11         -1.1910     1.6930     3.0000 h5         1 6CE       0.122100
     46 H12         -2.5010    -2.3650     0.3910 hn         1 6CE       0.463800
     47 H13         -4.2840    -4.0540     0.3300 hn         1 6CE       0.480467
     48 H14         -4.6500    -3.1180    -0.9580 hn         1 6CE       0.480467
     49 H15          2.6130    -0.9280    -1.3540 ho         1 6CE       0.414000
     50 H16         -0.6760    -0.3820    -1.7960 ho         1 6CE       0.412000
     51 H17          6.8650    -1.7530     4.0070 h1         1 6CE       0.051700
     52 H18          6.1740    -2.4730     5.4680 h1         1 6CE       0.051700
     53 H19          8.4440    -3.1600     7.6740 h4         1 6CE       0.161000
     54 H20         10.4740    -4.5680     6.9790 hn         1 6CE       0.287700
     55 H21          9.5600    -0.8020     3.2800 ha         1 6CE       0.154000
     56 H22         11.4440    -1.5720     1.9210 ha         1 6CE       0.127000
     57 H23         12.8270    -3.4680     2.6680 ha         1 6CE       0.120000
     58 H24         12.3320    -4.6190     4.7810 ha         1 6CE       0.116000
     59 H203        -5.8060    -3.4880     0.1340 hn         1 6CE       0.480467
@<TRIPOS>BOND
     1    24    22 2   
     2    21    22 1   
     3    21    20 2   
     4    22    17 1   
     5    23    20 1   
     6    20    19 1   
     7    17    16 1   
     8    17    18 2   
     9    16    15 2   
    10    19    18 1   
    11    18    14 1   
    12    15    14 1   
    13    14    12 1   
    14    12     1 1   
    15    12    13 1   
    16    26     1 1   
    17     1    11 1   
    18    13     3 1   
    19    11     3 1   
    20    11    25 1   
    21     3     2 1   
    22    10     2 1   
    23    10     7 1   
    24    29    31 1   
    25    29    28 2   
    26     4    28 1   
    27     4    27 1   
    28     7     9 1   
    29     7     6 1   
    30     7     8 1   
    31    31    30 1   
    32    28     5 1   
    33     6    27 1   
    34    30     5 ar  
    35    30    35 ar  
    36     5    32 ar  
    37    35    34 ar  
    38    32    33 ar  
    39    34    33 ar  
    40     1    36 1   
    41     2    37 1   
    42     2    38 1   
    43     3    39 1   
    44     4    40 1   
    45     4    41 1   
    46     6    42 1   
    47    11    43 1   
    48    12    44 1   
    49    15    45 1   
    50    19    46 1   
    51    23    47 1   
    52    23    48 1   
    53    25    49 1   
    54    26    50 1   
    55    27    51 1   
    56    27    52 1   
    57    29    53 1   
    58    31    54 1   
    59    32    55 1   
    60    33    56 1   
    61    34    57 1   
    62    35    58 1   
    63    59    23 1   
@<TRIPOS>SUBSTRUCTURE
     1 6CE         1 TEMP              0 ****  ****    0 ROOT
