@<TRIPOS>MOLECULE
molecule
   43    44     1     0     0
SMALL
bcc


@<TRIPOS>ATOM
      1 N1           0.0000     0.0000     0.0000 n          1 6CF      -0.380000
      2 P1           0.4480    -3.9730    -5.4100 p5         1 6CF       1.142600
      3 C2           1.3460     0.0000     0.0000 c          1 6CF       0.853900
      4 O2           1.9460    -0.0010    -1.0620 o          1 6CF      -0.681500
      5 P2           0.3410    -6.8210    -6.2670 p5         1 6CF       1.270600
      6 N3           2.0330     0.0000     1.1410 nc         1 6CF      -0.832100
      7 P3          -0.2470    -9.6930    -6.7130 p5         1 6CF       1.291900
      8 C4           1.4060     0.0010     2.3090 cd         1 6CF       0.199500
      9 N4           2.1270     0.0020     3.4820 nz         1 6CF      -0.634600
     10 C5          -0.0040     0.0010     2.3440 cd         1 6CF      -0.309600
     11 C6          -0.6880     0.0000     1.1760 cc         1 6CF      -0.062400
     12 C1'         -0.7290     0.0060    -1.2710 c3         1 6CF       0.315500
     13 F1A         -0.3100    -5.9680    -3.8530 f          1 6CF      -0.259800
     14 O1A          2.0010    -4.1470    -5.0240 o          1 6CF      -0.773000
     15 O1B          0.2200    -6.3540    -7.8040 o          1 6CF      -0.676500
     16 O1G         -1.0580   -10.7660    -5.8270 o          1 6CF      -0.644500
     17 C2'         -0.3980     1.2830    -2.0750 c3         1 6CF      -0.147400
     18 F2A         -1.7650    -5.4120    -5.5240 f          1 6CF      -0.259800
     19 O2A          0.3360    -3.5430    -6.8220 o          1 6CF      -0.773000
     20 O2B          1.7690    -6.9820    -5.9120 o          1 6CF      -0.676500
     21 O2G         -0.8220    -9.6920    -8.2160 o          1 6CF      -0.644500
     22 C3'         -0.3540     0.8020    -3.5420 c3         1 6CF       0.107100
     23 O3'         -1.3500     1.4720    -4.3180 oh         1 6CF      -0.616800
     24 C3A         -0.4160    -5.5620    -5.1880 c3         1 6CF       0.090200
     25 O3B         -0.4210    -8.2260    -6.0720 os         1 6CF      -0.703800
     26 O3G          1.1880   -10.0540    -6.7340 o          1 6CF      -0.644500
     27 C4'         -0.6650    -0.7080    -3.4510 c3         1 6CF       0.132100
     28 O4'         -0.2850    -1.0830    -2.1100 os         1 6CF      -0.350600
     29 C5'          0.1640    -1.4850    -4.4760 c3         1 6CF       0.236400
     30 O5'         -0.2210    -2.8610    -4.4560 os         1 6CF      -0.586200
     31 HN4          1.8990     0.8190     4.0130 hn         1 6CF       0.370467
     32 HN4A         1.9000    -0.8150     4.0130 hn         1 6CF       0.370467
     33 H5          -0.5310     0.0010     3.2910 ha         1 6CF       0.073000
     34 H6          -1.7720     0.0000     1.1760 h4         1 6CF       0.118000
     35 H1'         -1.7970    -0.0630    -1.1010 h2         1 6CF       0.032700
     36 H2'         -1.1760     2.0260    -1.9430 hc         1 6CF       0.053700
     37 H2'A         0.5670     1.6780    -1.7780 hc         1 6CF       0.053700
     38 H3'          0.6320     0.9600    -3.9620 h1         1 6CF       0.058700
     39 HO3'        -0.9420     2.1380    -4.8460 ho         1 6CF       0.383000
     40 H4'         -1.7240    -0.8830    -3.6040 h1         1 6CF       0.054700
     41 H5'         -0.0080    -1.0760    -5.4640 h1         1 6CF       0.038700
     42 H5'A         1.2160    -1.4000    -4.2280 h1         1 6CF       0.038700
     43 H43          3.1050     0.0130     3.2720 hn         1 6CF       0.370467
@<TRIPOS>BOND
     1     3     1 1
     2    12     1 1
     3     1    11 1
     4    30     2 1
     5    24     2 1
     6     2    19 1
     7     2    14 1
     8     4     3 2
     9     3     6 1
    10    15     5 1
    11     5    20 1
    12     5    24 1
    13     5    25 1
    14     6     8 2
    15    25     7 1
    16     7    26 1
    17     7    16 1
    18     7    21 1
    19     8     9 1
    20     8    10 1
    21     9    31 1
    22     9    32 1
    23    11    10 2
    24    10    33 1
    25    11    34 1
    26    17    12 1
    27    12    28 1
    28    12    35 1
    29    13    24 1
    30    17    22 1
    31    17    36 1
    32    17    37 1
    33    24    18 1
    34    23    22 1
    35    22    27 1
    36    22    38 1
    37    23    39 1
    38    28    27 1
    39    27    29 1
    40    27    40 1
    41    29    30 1
    42    29    41 1
    43    29    42 1
    44    43     9 1
@<TRIPOS>SUBSTRUCTURE
     1 6CF         1 TEMP              0 ****  ****    0 ROOT
