@<TRIPOS>MOLECULE
molecule
   37    39     1     0     0
SMALL
bcc


@<TRIPOS>ATOM
      1 C2           0.0000     0.0000     0.0000 cc         1 6CG       0.645100
      2 C4          -0.1080     0.0010     2.3680 cd         1 6CG      -0.012000
      3 C5           1.2810     0.0000     2.4150 cc         1 6CG       0.243800
      4 C6           2.0150     0.0000     1.1450 c          1 6CG       0.638000
      5 N1           1.3170     0.0000     0.0000 nd         1 6CG      -0.714100
      6 N2          -0.6580    -0.0070    -1.2000 nz         1 6CG      -0.739600
      7 N3          -0.7300     0.0000     1.1470 na         1 6CG      -0.652600
      8 C8           0.5700     0.0010     4.4590 cd         1 6CG       0.482400
      9 C1'         -1.9300     0.0010     4.1110 c3         1 6CG       0.233800
     10 C3'         -3.6260    -1.3170     5.2010 c3         1 6CG       0.091100
     11 C4'         -3.2670    -0.0510     6.0010 c3         1 6CG       0.110100
     12 C5'         -3.1130    -0.3970     7.4840 c3         1 6CG       0.128700
     13 O6           3.2360     0.0010     1.1310 o          1 6CG      -0.506100
     14 N7           1.6430     0.0010     3.7190 nc         1 6CG      -0.640000
     15 N9          -0.5350     0.0010     3.6610 na         1 6CG      -0.170900
     16 O4'         -2.0190     0.4430     5.4830 os         1 6CG      -0.361600
     17 C2'         -2.4870    -1.4440     4.1600 c3         1 6CG       0.070100
     18 O2'         -3.0040    -1.8340     2.8860 oh         1 6CG      -0.612800
     19 O3'         -4.8870    -1.1550     4.5480 oh         1 6CG      -0.571800
     20 S5'         -2.8360     1.1220     8.4350 ss         1 6CG      -0.562500
     21 P           -4.7600     2.0100     8.4860 p5         1 6CG       0.945900
     22 O1P         -4.6920     3.3930     9.3080 o          1 6CG      -0.742167
     23 O2P         -5.7940     1.0080     9.2080 o          1 6CG      -0.742167
     24 O3P         -5.2170     2.2790     7.1040 o          1 6CG      -0.742167
     25 H1           0.0020     0.1090    -1.9440 hn         1 6CG       0.442133
     26 H2          -1.1380    -0.8780    -1.3130 hn         1 6CG       0.442133
     27 H3          -1.7300     0.0000     1.0990 hn         1 6CG       0.455800
     28 H4           0.5580     0.0020     5.5430 h5         1 6CG       0.118100
     29 H5          -2.5440     0.6240     3.4710 h2         1 6CG       0.091700
     30 H6          -3.6390    -2.1830     5.8520 h1         1 6CG       0.051700
     31 H7          -4.0400     0.6970     5.8710 h1         1 6CG       0.163700
     32 H8          -4.0140    -0.8850     7.8360 h1         1 6CG       0.055200
     33 H9          -2.2680    -1.0630     7.6130 h1         1 6CG       0.055200
     34 H10         -1.7280    -2.1360     4.5040 h1         1 6CG       0.055700
     35 H11         -2.9590    -2.7720     2.8020 ho         1 6CG       0.402000
     36 H12         -5.4770    -1.8350     4.8290 ho         1 6CG       0.405000
     37 H23         -1.3250     0.7390    -1.2200 hn         1 6CG       0.442133
@<TRIPOS>BOND
     1    13     4 2   
     2     5     4 1   
     3     5     1 2   
     4     4     3 1   
     5     6     1 1   
     6     1     7 1   
     7     3    14 1   
     8     3     2 2   
     9    14     8 2   
    10     7     2 1   
    11     2    15 1   
    12     8    15 1   
    13    15     9 1   
    14    18    17 1   
    15     9    17 1   
    16     9    16 1   
    17    17    10 1   
    18    16    11 1   
    19    10    11 1   
    20    10    19 1   
    21    11    12 1   
    22    12    20 1   
    23    20    21 1   
    24    22    21 1   
    25    21    24 1   
    26    21    23 1   
    27     6    25 1   
    28     6    26 1   
    29     7    27 1   
    30     8    28 1   
    31     9    29 1   
    32    10    30 1   
    33    11    31 1   
    34    12    32 1   
    35    12    33 1   
    36    17    34 1   
    37    18    35 1   
    38    19    36 1   
    39    37     6 1   
@<TRIPOS>SUBSTRUCTURE
     1 6CG         1 TEMP              0 ****  ****    0 ROOT
