@<TRIPOS>MOLECULE
6CJ
   71    76     1     0     0
SMALL
bcc


@<TRIPOS>ATOM
      1 O3           0.0000     0.0000     0.0000 os         1 6CJ      -0.294900
      2 C4           5.9360     0.0000     0.8390 cc         1 6CJ       0.063200
      3 C5           3.6010    -0.0130     1.9880 ca         1 6CJ      -0.038100
      4 C6           2.4180    -0.0220     2.7110 ca         1 6CJ       0.004000
      5 N1           4.8710     0.0000     0.0000 n          1 6CJ       0.277800
      6 C7           1.2070    -0.0170     2.0470 ca         1 6CJ      -0.217000
      7 C8           1.1900    -0.0050     0.6580 ca         1 6CJ       0.156100
      8 C9          -1.1810    -0.1310     0.7940 c3         1 6CJ       0.166100
      9 C10         -1.5980     1.2450     1.3170 c3         1 6CJ      -0.046900
     10 C11         -2.8630     1.1050     2.1670 c3         1 6CJ      -0.018900
     11 C12         -3.9900     0.5200     1.3130 c3         1 6CJ      -0.028400
     12 C13         -3.5710    -0.8560     0.7900 c3         1 6CJ      -0.018900
     13 C14         -2.3070    -0.7160    -0.0590 c3         1 6CJ      -0.046900
     14 C15          2.3670    -0.0050    -0.0610 ca         1 6CJ      -0.122000
     15 C17          5.1010     0.0060    -1.3440 c          1 6CJ       0.600700
     16 C16          3.6070    -0.0080     0.5980 ca         1 6CJ      -0.114400
     17 S            5.2960    -0.0160     2.4890 ss         1 6CJ      -0.129500
     18 C18          6.4050     0.0120    -1.8700 cc         1 6CJ      -0.207400
     19 C20          6.6120     0.0180    -3.3370 ca         1 6CJ       0.004200
     20 C25          7.2180    -1.0700    -3.9640 ca         1 6CJ      -0.082500
     21 C24          7.4080    -1.0580    -5.3310 ca         1 6CJ      -0.107000
     22 C23          6.9980     0.0320    -6.0790 ca         1 6CJ      -0.112000
     23 C22          6.3980     1.1150    -5.4630 ca         1 6CJ      -0.107000
     24 C21          6.1960     1.1110    -4.0980 ca         1 6CJ      -0.082500
     25 C19          7.4970     0.0120    -1.0170 cd         1 6CJ       0.031000
     26 C3           7.2550     0.0060     0.3680 cd         1 6CJ      -0.193200
     27 C2           8.3770     0.0060     1.3150 c          1 6CJ       0.596300
     28 O2           8.1630     0.0020     2.5120 o          1 6CJ      -0.648100
     29 N            9.6450     0.0130     0.8570 ns         1 6CJ      -0.127900
     30 C1          10.7650     0.0130     1.8010 c3         1 6CJ      -0.097300
     31 C           11.0650     1.4280     2.2260 c          1 6CJ       0.974600
     32 O1          12.0590     1.6730     3.0930 o          1 6CJ      -0.884300
     33 O           10.4100     2.3420     1.7840 o          1 6CJ      -0.884300
     34 C26         12.0000    -0.5890     1.1290 c3         1 6CJ       0.027900
     35 C27         11.7430    -2.0400     0.8150 ca         1 6CJ      -0.082300
     36 C32         12.0540    -3.0140     1.7460 ca         1 6CJ      -0.085000
     37 C31         11.8200    -4.3450     1.4610 ca         1 6CJ      -0.141000
     38 C30         11.2720    -4.7050     0.2390 ca         1 6CJ       0.096100
     39 C29         10.9600    -3.7270    -0.6940 ca         1 6CJ      -0.141000
     40 C28         11.1910    -2.3970    -0.4020 ca         1 6CJ      -0.085000
     41 H3          -0.9870    -0.7900     1.6320 h1         1 6CJ       0.023700
     42 H4          11.8020    -6.3860    -0.4560 ho         1 6CJ       0.391000
     43 H5          -1.7980     1.9030     0.4800 hc         1 6CJ       0.027950
     44 H6          -0.8010     1.6560     1.9240 hc         1 6CJ       0.027950
     45 H7          -3.1590     2.0800     2.5340 hc         1 6CJ       0.013200
     46 H8          -2.6640     0.4440     3.0020 hc         1 6CJ       0.013200
     47 H9          -4.1860     1.1790     0.4760 hc         1 6CJ       0.013700
     48 H10         -4.8830     0.4190     1.9170 hc         1 6CJ       0.013700
     49 H11         -3.3710    -1.5130     1.6280 hc         1 6CJ       0.013200
     50 H12         -4.3690    -1.2680     0.1840 hc         1 6CJ       0.013200
     51 H13         -2.0110    -1.6910    -0.4270 hc         1 6CJ       0.027950
     52 H14         -2.5060    -0.0550    -0.8940 hc         1 6CJ       0.027950
     53 H15          2.3340    -0.0040    -1.1430 ha         1 6CJ       0.171000
     54 H16          7.5380    -1.9240    -3.3790 ha         1 6CJ       0.108000
     55 H17          7.8780    -1.9030    -5.8190 ha         1 6CJ       0.096500
     56 H18          7.1520     0.0380    -7.1510 ha         1 6CJ       0.093000
     57 H19          6.0770     1.9640    -6.0550 ha         1 6CJ       0.096500
     58 H20          5.7250     1.9600    -3.6160 ha         1 6CJ       0.108000
     59 H21          8.5080     0.0170    -1.4060 ha         1 6CJ       0.122000
     60 H23          9.8210     0.0680    -0.1270 hn         1 6CJ       0.157500
     61 H24         10.5040    -0.5770     2.6710 h1         1 6CJ       0.061700
     62 H26         12.2090    -0.0530     0.2110 hc         1 6CJ       0.036200
     63 H27         12.8500    -0.5090     1.7960 hc         1 6CJ       0.036200
     64 H28         12.4830    -2.7320     2.7010 ha         1 6CJ       0.109500
     65 H29         12.0640    -5.1060     2.1920 ha         1 6CJ       0.104000
     66 H30         10.5270    -4.0050    -1.6470 ha         1 6CJ       0.104000
     67 H31         10.9480    -1.6330    -1.1300 ha         1 6CJ       0.109500
     68 H1           2.4430    -0.0320     3.7940 ha         1 6CJ       0.111000
     69 O4           4.1520     0.0060    -2.1090 o          1 6CJ      -0.704500
     70 O5          11.0400    -6.0140    -0.0430 oh         1 6CJ      -0.505100
     71 H2           0.2870    -0.1630     2.5990 ha         1 6CJ       0.127000
@<TRIPOS>BOND
     1     1     7 1   
     2     1     8 1   
     3     2     5 1   
     4     2    17 1   
     5     2    26 2   
     6     3     4 ar  
     7     3    16 ar  
     8     3    17 1   
     9     4     6 ar  
    10     4    68 1   
    11     5    15 1   
    12     5    16 1   
    13     6     7 ar  
    14     6    71 1   
    15     7    14 ar  
    16     8     9 1   
    17     8    13 1   
    18     8    41 1   
    19     9    10 1   
    20     9    43 1   
    21     9    44 1   
    22    10    11 1   
    23    10    45 1   
    24    10    46 1   
    25    11    12 1   
    26    11    47 1   
    27    11    48 1   
    28    12    13 1   
    29    12    49 1   
    30    12    50 1   
    31    13    51 1   
    32    13    52 1   
    33    14    16 ar  
    34    14    53 1   
    35    15    18 1   
    36    15    69 2   
    37    18    19 1   
    38    18    25 2   
    39    19    20 ar  
    40    19    24 ar  
    41    20    21 ar  
    42    20    54 1   
    43    21    22 ar  
    44    21    55 1   
    45    22    23 ar  
    46    22    56 1   
    47    23    24 ar  
    48    23    57 1   
    49    24    58 1   
    50    25    26 1   
    51    25    59 1   
    52    26    27 1   
    53    27    28 2   
    54    27    29 1   
    55    29    30 1   
    56    29    60 1   
    57    30    31 1   
    58    30    34 1   
    59    30    61 1   
    60    31    32 1   
    61    31    33 1   
    62    34    35 1   
    63    34    62 1   
    64    34    63 1   
    65    35    36 ar  
    66    35    40 ar  
    67    36    37 ar  
    68    36    64 1   
    69    37    38 ar  
    70    37    65 1   
    71    38    39 ar  
    72    38    70 1   
    73    39    40 ar  
    74    39    66 1   
    75    40    67 1   
    76    42    70 1   
@<TRIPOS>SUBSTRUCTURE
     1 6CJ         1 TEMP              0 ****  ****    0 ROOT
