@<TRIPOS>MOLECULE
molecule
   71    76     1     0     0
SMALL
bcc


@<TRIPOS>ATOM
      1 O3           0.0000     0.0000     0.0000 os         1 6CJ      -0.321900
      2 C4           5.9360     0.0000     0.8390 cc         1 6CJ       0.183200
      3 C5           3.6010    -0.0130     1.9880 ca         1 6CJ      -0.096100
      4 C6           2.4180    -0.0220     2.7110 ca         1 6CJ      -0.042000
      5 N1           4.8710     0.0000     0.0000 n          1 6CJ      -0.206200
      6 C7           1.2070    -0.0170     2.0470 ca         1 6CJ      -0.225000
      7 C8           1.1900    -0.0050     0.6580 ca         1 6CJ       0.148100
      8 C9          -1.1810    -0.1310     0.7940 c3         1 6CJ       0.145100
      9 C10         -1.5980     1.2450     1.3170 c3         1 6CJ      -0.092400
     10 C11         -2.8630     1.1050     2.1670 c3         1 6CJ      -0.078400
     11 C12         -3.9900     0.5200     1.3130 c3         1 6CJ      -0.083400
     12 C13         -3.5710    -0.8560     0.7900 c3         1 6CJ      -0.078400
     13 C14         -2.3070    -0.7160    -0.0590 c3         1 6CJ      -0.092400
     14 C15          2.3670    -0.0050    -0.0610 ca         1 6CJ      -0.138000
     15 C17          5.1010     0.0060    -1.3440 c          1 6CJ       0.705700
     16 C16          3.6070    -0.0080     0.5980 ca         1 6CJ       0.049600
     17 S            5.2960    -0.0160     2.4890 ss         1 6CJ       0.023500
     18 C18          6.4050     0.0120    -1.8700 cc         1 6CJ      -0.213400
     19 C20          6.6120     0.0180    -3.3370 ca         1 6CJ      -0.006800
     20 C25          7.2180    -1.0700    -3.9640 ca         1 6CJ      -0.105000
     21 C24          7.4080    -1.0580    -5.3310 ca         1 6CJ      -0.135000
     22 C23          6.9980     0.0320    -6.0790 ca         1 6CJ      -0.135000
     23 C22          6.3980     1.1150    -5.4630 ca         1 6CJ      -0.135000
     24 C21          6.1960     1.1110    -4.0980 ca         1 6CJ      -0.105000
     25 C19          7.4970     0.0120    -1.0170 cd         1 6CJ       0.019000
     26 C3           7.2550     0.0060     0.3680 cd         1 6CJ      -0.219200
     27 C2           8.3770     0.0060     1.3150 c          1 6CJ       0.690300
     28 O2           8.1630     0.0020     2.5120 o          1 6CJ      -0.621100
     29 N            9.6450     0.0130     0.8570 ns         1 6CJ      -0.535900
     30 C1          10.7650     0.0130     1.8010 c3         1 6CJ       0.011700
     31 C           11.0650     1.4280     2.2260 c          1 6CJ       0.884600
     32 O1          12.0590     1.6730     3.0930 o          1 6CJ      -0.833300
     33 O           10.4100     2.3420     1.7840 o          1 6CJ      -0.833300
     34 C26         12.0000    -0.5890     1.1290 c3         1 6CJ      -0.039100
     35 C27         11.7430    -2.0400     0.8150 ca         1 6CJ      -0.065300
     36 C32         12.0540    -3.0140     1.7460 ca         1 6CJ      -0.118000
     37 C31         11.8200    -4.3450     1.4610 ca         1 6CJ      -0.153500
     38 C30         11.2720    -4.7050     0.2390 ca         1 6CJ       0.076100
     39 C29         10.9600    -3.7270    -0.6940 ca         1 6CJ      -0.153500
     40 C28         11.1910    -2.3970    -0.4020 ca         1 6CJ      -0.118000
     41 H3          -0.9870    -0.7900     1.6320 h1         1 6CJ       0.046700
     42 H4          11.8020    -6.3860    -0.4560 ho         1 6CJ       0.405000
     43 H5          -1.7980     1.9030     0.4800 hc         1 6CJ       0.056450
     44 H6          -0.8010     1.6560     1.9240 hc         1 6CJ       0.056450
     45 H7          -3.1590     2.0800     2.5340 hc         1 6CJ       0.042450
     46 H8          -2.6640     0.4440     3.0020 hc         1 6CJ       0.042450
     47 H9          -4.1860     1.1790     0.4760 hc         1 6CJ       0.041200
     48 H10         -4.8830     0.4190     1.9170 hc         1 6CJ       0.041200
     49 H11         -3.3710    -1.5130     1.6280 hc         1 6CJ       0.042450
     50 H12         -4.3690    -1.2680     0.1840 hc         1 6CJ       0.042450
     51 H13         -2.0110    -1.6910    -0.4270 hc         1 6CJ       0.056450
     52 H14         -2.5060    -0.0550    -0.8940 hc         1 6CJ       0.056450
     53 H15          2.3340    -0.0040    -1.1430 ha         1 6CJ       0.193000
     54 H16          7.5380    -1.9240    -3.3790 ha         1 6CJ       0.136000
     55 H17          7.8780    -1.9030    -5.8190 ha         1 6CJ       0.122500
     56 H18          7.1520     0.0380    -7.1510 ha         1 6CJ       0.118000
     57 H19          6.0770     1.9640    -6.0550 ha         1 6CJ       0.122500
     58 H20          5.7250     1.9600    -3.6160 ha         1 6CJ       0.136000
     59 H21          8.5080     0.0170    -1.4060 ha         1 6CJ       0.151000
     60 H23          9.8210     0.0680    -0.1270 hn         1 6CJ       0.296500
     61 H24         10.5040    -0.5770     2.6710 h1         1 6CJ       0.080700
     62 H26         12.2090    -0.0530     0.2110 hc         1 6CJ       0.066200
     63 H27         12.8500    -0.5090     1.7960 hc         1 6CJ       0.066200
     64 H28         12.4830    -2.7320     2.7010 ha         1 6CJ       0.134000
     65 H29         12.0640    -5.1060     2.1920 ha         1 6CJ       0.128000
     66 H30         10.5270    -4.0050    -1.6470 ha         1 6CJ       0.128000
     67 H31         10.9480    -1.6330    -1.1300 ha         1 6CJ       0.134000
     68 H1           2.4430    -0.0320     3.7940 ha         1 6CJ       0.141000
     69 O4           4.1520     0.0060    -2.1090 o          1 6CJ      -0.651500
     70 O5          11.0400    -6.0140    -0.0430 oh         1 6CJ      -0.528100
     71 H2           0.2870    -0.1630     2.5990 ha         1 6CJ       0.140000
@<TRIPOS>BOND
     1    37    36 ar  
     2    37    38 ar  
     3    36    35 ar  
     4    70    38 1   
     5    38    39 ar  
     6    33    31 1   
     7    10     9 1   
     8    10    11 1   
     9     9     8 1   
    10    35    34 1   
    11    35    40 ar  
    12    39    40 ar  
    13    34    30 1   
    14    31    30 1   
    15    31    32 1   
    16     6     4 ar  
    17     6     7 ar  
    18     4     3 ar  
    19     1     8 1   
    20     1     7 1   
    21     8    13 1   
    22    11    12 1   
    23    30    29 1   
    24     7    14 ar  
    25     3    17 1   
    26     3    16 ar  
    27    17     2 1   
    28    14    16 ar  
    29    16     5 1   
    30    12    13 1   
    31    29    27 1   
    32     2     5 1   
    33     2    26 2   
    34     5    15 1   
    35    27    26 1   
    36    27    28 2   
    37    26    25 1   
    38    69    15 2   
    39    15    18 1   
    40    25    18 2   
    41    18    19 1   
    42    24    19 ar  
    43    24    23 ar  
    44    19    20 ar  
    45    23    22 ar  
    46    20    21 ar  
    47    22    21 ar  
    48     4    68 1   
    49     6    71 1   
    50     8    41 1   
    51    70    42 1   
    52     9    43 1   
    53     9    44 1   
    54    10    45 1   
    55    10    46 1   
    56    11    47 1   
    57    11    48 1   
    58    12    49 1   
    59    12    50 1   
    60    13    51 1   
    61    13    52 1   
    62    14    53 1   
    63    20    54 1   
    64    21    55 1   
    65    22    56 1   
    66    23    57 1   
    67    24    58 1   
    68    25    59 1   
    69    29    60 1   
    70    30    61 1   
    71    34    62 1   
    72    34    63 1   
    73    36    64 1   
    74    37    65 1   
    75    39    66 1   
    76    40    67 1   
@<TRIPOS>SUBSTRUCTURE
     1 6CJ         1 TEMP              0 ****  ****    0 ROOT
