@<TRIPOS>MOLECULE
molecule
   75    74     1     0     0
SMALL
bcc


@<TRIPOS>ATOM
      1 O19          0.0000     0.0000     0.0000 o          1 6CM      -0.613100
      2 C19          1.2120     0.0000     0.0000 c          1 6CM       0.659100
      3 N2           1.8860     0.0000     1.1670 ns         1 6CM      -0.576900
      4 C2           1.1540    -0.0020     2.4360 c3         1 6CM       0.121700
      5 C1           0.7910    -1.4390     2.8130 c3         1 6CM       0.117400
      6 O1           1.9860    -2.1850     3.0530 oh         1 6CM      -0.626800
      7 C3           2.0310     0.6070     3.5310 c3         1 6CM       0.174300
      8 C4           2.4350     2.0030     3.1340 c2         1 6CM      -0.217200
      9 C5           2.1860     3.0100     3.9350 c2         1 6CM      -0.145200
     10 C6           2.5890     4.4070     3.5370 c3         1 6CM      -0.051200
     11 C7           1.3670     5.3260     3.5930 c3         1 6CM      -0.077400
     12 C8           1.7760     6.7440     3.1890 c3         1 6CM      -0.083400
     13 C9           0.5550     7.6630     3.2450 c3         1 6CM      -0.081400
     14 C10          0.9640     9.0810     2.8400 c3         1 6CM      -0.082400
     15 C11         -0.2580    10.0000     2.8960 c3         1 6CM      -0.082400
     16 C12          0.1510    11.4180     2.4920 c3         1 6CM      -0.082400
     17 C13         -1.0700    12.3370     2.5480 c3         1 6CM      -0.082400
     18 C14         -0.6610    13.7540     2.1440 c3         1 6CM      -0.081400
     19 C15         -1.8830    14.6730     2.1990 c3         1 6CM      -0.082400
     20 C16         -1.4740    16.0920     1.7950 c3         1 6CM      -0.081400
     21 C17         -2.6950    17.0110     1.8510 c3         1 6CM      -0.084400
     22 C18         -2.2860    18.4280     1.4470 c3         1 6CM      -0.092100
     23 O3           1.2980     0.6540     4.7570 oh         1 6CM      -0.601800
     24 C20          1.9660     0.0020    -1.3050 c3         1 6CM      -0.157400
     25 C21          0.9720     0.0020    -2.4680 c3         1 6CM      -0.066400
     26 C22          1.7370     0.0030    -3.7930 c3         1 6CM      -0.085400
     27 C23          0.7430     0.0050    -4.9560 c3         1 6CM      -0.082400
     28 C24          1.5080     0.0060    -6.2810 c3         1 6CM      -0.092100
     29 HN2          2.8860    -0.0410     1.1670 hn         1 6CM       0.317500
     30 H2           0.2480     0.5840     2.3310 h1         1 6CM       0.102700
     31 H11          0.2360    -1.8950     2.0030 h1         1 6CM       0.041200
     32 H12          0.1820    -1.4340     3.7100 h1         1 6CM       0.041200
     33 HO1          1.7610    -3.0660     3.3030 ho         1 6CM       0.405000
     34 H3           2.9170    -0.0010     3.6640 h1         1 6CM       0.055700
     35 H4           2.9290     2.1750     2.1860 ha         1 6CM       0.129000
     36 H5           1.6910     2.8390     4.8830 ha         1 6CM       0.143000
     37 H61          3.3470     4.7720     4.2200 hc         1 6CM       0.045200
     38 H62          2.9860     4.3950     2.5300 hc         1 6CM       0.045200
     39 H71          0.6100     4.9610     2.9100 hc         1 6CM       0.046200
     40 H72          0.9700     5.3380     4.6000 hc         1 6CM       0.046200
     41 H81          2.5340     7.1090     3.8720 hc         1 6CM       0.040200
     42 H82          2.1740     6.7320     2.1820 hc         1 6CM       0.040200
     43 H91          0.1580     7.6750     4.2520 hc         1 6CM       0.042200
     44 H92         -0.2030     7.2970     2.5620 hc         1 6CM       0.042200
     45 H101         1.7220     9.4470     3.5230 hc         1 6CM       0.040700
     46 H102         1.3610     9.0690     1.8330 hc         1 6CM       0.040700
     47 H111        -0.6550    10.0120     3.9030 hc         1 6CM       0.041700
     48 H112        -1.0160     9.6350     2.2130 hc         1 6CM       0.041700
     49 H121         0.9090    11.7830     3.1750 hc         1 6CM       0.040700
     50 H122         0.5490    11.4060     1.4850 hc         1 6CM       0.040700
     51 H131        -1.8280    11.9710     1.8650 hc         1 6CM       0.041200
     52 H132        -1.4680    12.3490     3.5550 hc         1 6CM       0.041200
     53 H141         0.0970    14.1190     2.8270 hc         1 6CM       0.040700
     54 H142        -0.2640    13.7420     1.1370 hc         1 6CM       0.040700
     55 H151        -2.2800    14.6850     3.2070 hc         1 6CM       0.040700
     56 H152        -2.6410    14.3080     1.5170 hc         1 6CM       0.040700
     57 H161        -0.7160    16.4570     2.4780 hc         1 6CM       0.040700
     58 H162        -1.0770    16.0790     0.7870 hc         1 6CM       0.040700
     59 H171        -3.4530    16.6450     1.1680 hc         1 6CM       0.039700
     60 H172        -3.0930    17.0230     2.8580 hc         1 6CM       0.039700
     61 H181        -3.1530    19.0770     1.4810 hc         1 6CM       0.032367
     62 H182        -1.8840    18.4150     0.4410 hc         1 6CM       0.032367
     63 H183        -1.5330    18.7950     2.1330 hc         1 6CM       0.032367
     64 HO3          1.8090     0.2590     5.4440 ho         1 6CM       0.408000
     65 H201         2.5900    -0.8830    -1.3630 hc         1 6CM       0.059200
     66 H202         2.5880     0.8860    -1.3610 hc         1 6CM       0.059200
     67 H211         0.3490    -0.8830    -2.4120 hc         1 6CM       0.058200
     68 H212         0.3480     0.8860    -2.4100 hc         1 6CM       0.058200
     69 H221         2.3600     0.8880    -3.8490 hc         1 6CM       0.038700
     70 H222         2.3590    -0.8810    -3.8510 hc         1 6CM       0.038700
     71 H231         0.1200    -0.8800    -4.8990 hc         1 6CM       0.042700
     72 H232         0.1200     0.8890    -4.8970 hc         1 6CM       0.042700
     73 H241         2.1560    -0.8600    -6.3250 hc         1 6CM       0.032367
     74 H242         0.8040    -0.0280    -7.1040 hc         1 6CM       0.032367
     75 H243         2.1040     0.9080    -6.3530 hc         1 6CM       0.032367
@<TRIPOS>BOND
     1     1     2 2
     2     2     3 1
     3     2    24 1
     4     3     4 1
     5     3    29 1
     6     4     5 1
     7     4     7 1
     8     4    30 1
     9     5     6 1
    10     5    31 1
    11     5    32 1
    12     6    33 1
    13     7     8 1
    14     7    23 1
    15     7    34 1
    16     8     9 2
    17     8    35 1
    18     9    10 1
    19     9    36 1
    20    10    11 1
    21    10    37 1
    22    10    38 1
    23    11    12 1
    24    11    39 1
    25    11    40 1
    26    12    13 1
    27    12    41 1
    28    12    42 1
    29    13    14 1
    30    13    43 1
    31    13    44 1
    32    14    15 1
    33    14    45 1
    34    14    46 1
    35    15    16 1
    36    15    47 1
    37    15    48 1
    38    16    17 1
    39    16    49 1
    40    16    50 1
    41    17    18 1
    42    17    51 1
    43    17    52 1
    44    18    19 1
    45    18    53 1
    46    18    54 1
    47    19    20 1
    48    19    55 1
    49    19    56 1
    50    20    21 1
    51    20    57 1
    52    20    58 1
    53    21    22 1
    54    21    59 1
    55    21    60 1
    56    22    61 1
    57    22    62 1
    58    22    63 1
    59    23    64 1
    60    24    25 1
    61    24    65 1
    62    24    66 1
    63    25    26 1
    64    25    67 1
    65    25    68 1
    66    26    27 1
    67    26    69 1
    68    26    70 1
    69    27    28 1
    70    27    71 1
    71    27    72 1
    72    28    73 1
    73    28    74 1
    74    28    75 1
@<TRIPOS>SUBSTRUCTURE
     1 6CM         1 TEMP              0 ****  ****    0 ROOT
