@<TRIPOS>MOLECULE
6CM
   75    76     1     0     0
SMALL
bcc


@<TRIPOS>ATOM
      1 O19          0.0000     0.0000     0.0000 o          1 6CM      -0.415000
      2 C19          1.2120     0.0000     0.0000 c2         1 6CM       0.216000
      3 N2           1.8860     0.0000     1.1670 ns         1 6CM       0.023000
      4 C2           1.1540    -0.0020     2.4360 c3         1 6CM      -0.105000
      5 C1           0.7910    -1.4390     2.8130 c3         1 6CM       0.047000
      6 O1           1.9860    -2.1850     3.0530 oh         1 6CM      -0.340000
      7 C3           2.0310     0.6070     3.5310 DU         1 6CM       0.191000
      8 C4           2.4350     2.0030     3.1340 c2         1 6CM      -0.166000
      9 C5           2.1860     3.0100     3.9350 c2         1 6CM      -0.065000
     10 C6           2.5890     4.4070     3.5370 DU         1 6CM       0.007000
     11 C7           1.3670     5.3260     3.5930 c3         1 6CM      -0.138000
     12 C8           1.7760     6.7440     3.1890 c3         1 6CM      -0.111000
     13 C9           0.5550     7.6630     3.2450 c3         1 6CM      -0.107000
     14 C10          0.9640     9.0810     2.8400 c3         1 6CM      -0.108000
     15 C11         -0.2580    10.0000     2.8960 c3         1 6CM      -0.108000
     16 C12          0.1510    11.4180     2.4920 c3         1 6CM      -0.108000
     17 C13         -1.0700    12.3370     2.5480 c3         1 6CM      -0.108000
     18 C14         -0.6610    13.7540     2.1440 c3         1 6CM      -0.108000
     19 C15         -1.8830    14.6730     2.1990 c3         1 6CM      -0.108000
     20 C16         -1.4740    16.0920     1.7950 c3         1 6CM      -0.109000
     21 C17         -2.6950    17.0110     1.8510 c3         1 6CM      -0.107000
     22 C18         -2.2860    18.4280     1.4470 c3         1 6CM      -0.112000
     23 O3           1.2980     0.6540     4.7570 oh         1 6CM      -0.294000
     24 C20          1.9660     0.0020    -1.3050 c3         1 6CM      -0.126000
     25 C21          0.9720     0.0020    -2.4680 c3         1 6CM      -0.094000
     26 C22          1.7370     0.0030    -3.7930 c3         1 6CM      -0.112000
     27 C23          0.7430     0.0050    -4.9560 c3         1 6CM      -0.105000
     28 C24          1.5080     0.0060    -6.2810 c3         1 6CM      -0.112000
     29 HN2          2.8870    -0.0300     1.1670 hn         1 6CM       0.087000
     30 H2           0.2480     0.5840     2.3310 h1         1 6CM       0.122000
     31 H11          0.1820    -1.4340     3.7100 h1         1 6CM       0.046500
     32 H12          0.2360    -1.8950     2.0030 h1         1 6CM       0.046500
     33 HO1          1.7690    -3.0950     3.1720 ho         1 6CM       0.195000
     34 H3           2.9170    -0.0010     3.6640 ha         1 6CM       0.043000
     35 H4           2.9790     1.3870     3.8390 DU         1 6CM      -0.004000
     36 H5           3.1960     3.3970     4.0000 DU         1 6CM       0.023000
     37 H61          3.3470     4.7720     4.2200 ha         1 6CM       0.057000
     38 H62          2.9860     4.3950     2.5300 ha         1 6CM       0.057000
     39 H71          0.9700     5.3380     4.6000 hc         1 6CM       0.066000
     40 H72          0.6100     4.9610     2.9100 hc         1 6CM       0.066000
     41 H81          2.1740     6.7320     2.1820 hc         1 6CM       0.051500
     42 H82          2.5340     7.1090     3.8720 hc         1 6CM       0.051500
     43 H91          0.1580     7.6750     4.2520 hc         1 6CM       0.056000
     44 H92         -0.2030     7.2970     2.5620 hc         1 6CM       0.056000
     45 H101         1.3610     9.0690     1.8330 hc         1 6CM       0.053500
     46 H102         1.7220     9.4470     3.5230 hc         1 6CM       0.053500
     47 H111        -1.0160     9.6350     2.2130 hc         1 6CM       0.054500
     48 H112        -0.6550    10.0120     3.9030 hc         1 6CM       0.054500
     49 H121         0.5490    11.4060     1.4850 hc         1 6CM       0.053500
     50 H122         0.9090    11.7830     3.1750 hc         1 6CM       0.053500
     51 H131        -1.8280    11.9710     1.8650 hc         1 6CM       0.054000
     52 H132        -1.4680    12.3490     3.5550 hc         1 6CM       0.054000
     53 H141        -0.2640    13.7420     1.1370 hc         1 6CM       0.054000
     54 H142         0.0970    14.1190     2.8270 hc         1 6CM       0.054000
     55 H151        -2.6410    14.3080     1.5170 hc         1 6CM       0.054000
     56 H152        -2.2800    14.6850     3.2070 hc         1 6CM       0.054000
     57 H161        -1.0770    16.0790     0.7870 hc         1 6CM       0.054000
     58 H162        -0.7160    16.4570     2.4780 hc         1 6CM       0.054000
     59 H171        -3.0930    17.0230     2.8580 hc         1 6CM       0.051000
     60 H172        -3.4530    16.6450     1.1680 hc         1 6CM       0.051000
     61 H181        -1.8940    18.4170     0.4370 hc         1 6CM       0.039333
     62 H182        -1.5250    18.7910     2.1270 hc         1 6CM       0.039333
     63 H183        -3.1510    19.0800     1.4920 hc         1 6CM       0.039333
     64 HO3          1.8480     0.3590     5.4640 ho         1 6CM       0.194000
     65 H201         2.5900    -0.8830    -1.3630 hc         1 6CM       0.065500
     66 H202         2.5880     0.8860    -1.3610 hc         1 6CM       0.065500
     67 H211         0.3480     0.8860    -2.4100 hc         1 6CM       0.069000
     68 H212         0.3490    -0.8830    -2.4120 hc         1 6CM       0.069000
     69 H221         2.3600     0.8880    -3.8490 hc         1 6CM       0.050500
     70 H222         2.3590    -0.8810    -3.8510 hc         1 6CM       0.050500
     71 H231         0.1200     0.8890    -4.8970 hc         1 6CM       0.053500
     72 H232         0.1200    -0.8800    -4.8990 hc         1 6CM       0.053500
     73 H241         2.1170    -0.8880    -6.3480 hc         1 6CM       0.039000
     74 H242         0.8040     0.0250    -7.1040 hc         1 6CM       0.039000
     75 H243         2.1440     0.8810    -6.3300 hc         1 6CM       0.039000
@<TRIPOS>BOND
     1     1     2 1   
     2     2     3 1   
     3     2    24 1   
     4     3     4 1   
     5     3    29 1   
     6     4     5 1   
     7     4     7 1   
     8     4    30 1   
     9     5     6 1   
    10     5    31 1   
    11     5    32 1   
    12     6    33 1   
    13     7     8 1   
    14     7    23 1   
    15     7    34 1   
    16     7    35 1   
    17     8     9 1   
    18     8    35 1   
    19     9    10 1   
    20     9    36 1   
    21    10    11 1   
    22    10    36 1   
    23    10    37 1   
    24    10    38 1   
    25    11    12 1   
    26    11    39 1   
    27    11    40 1   
    28    12    13 1   
    29    12    41 1   
    30    12    42 1   
    31    13    14 1   
    32    13    43 1   
    33    13    44 1   
    34    14    15 1   
    35    14    45 1   
    36    14    46 1   
    37    15    16 1   
    38    15    47 1   
    39    15    48 1   
    40    16    17 1   
    41    16    49 1   
    42    16    50 1   
    43    17    18 1   
    44    17    51 1   
    45    17    52 1   
    46    18    19 1   
    47    18    53 1   
    48    18    54 1   
    49    19    20 1   
    50    19    55 1   
    51    19    56 1   
    52    20    21 1   
    53    20    57 1   
    54    20    58 1   
    55    21    22 1   
    56    21    59 1   
    57    21    60 1   
    58    22    61 1   
    59    22    62 1   
    60    22    63 1   
    61    23    64 1   
    62    24    25 1   
    63    24    65 1   
    64    24    66 1   
    65    25    26 1   
    66    25    67 1   
    67    25    68 1   
    68    26    27 1   
    69    26    69 1   
    70    26    70 1   
    71    27    28 1   
    72    27    71 1   
    73    27    72 1   
    74    28    73 1   
    75    28    74 1   
    76    28    75 1   
@<TRIPOS>SUBSTRUCTURE
     1 6CM         1 TEMP              0 ****  ****    0 ROOT
