@<TRIPOS>MOLECULE
6CN
   33    34     1     0     0
SMALL
bcc


@<TRIPOS>ATOM
      1 O3P         0.1940    0.7200   -1.1420 o         1 6CN     -0.855500
      2 P           1.4970    0.7240   -0.4370 p5        1 6CN      1.905000
      3 O1P         1.4780    1.9040    0.6790 oh        1 6CN     -0.843000
      4 O2P         2.1040   -0.4940    0.1440 o         1 6CN     -0.855500
      5 O5'         2.6060    1.3960   -1.4700 os        1 6CN     -0.746000
      6 C5'         2.1820    2.4940   -2.2160 c3        1 6CN      0.029000
      7 C4'         2.9780    3.7480   -1.8220 c3        1 6CN      0.083000
      8 C3'         2.3030    4.6140   -0.8260 c2        1 6CN     -0.518000
      9 O3'         3.1050    5.0310    0.2310 oh        1 6CN     -0.292000
     10 C2'         1.5600    5.6580   -1.5630 c3        1 6CN      0.133000
     11 O2'         1.6830    6.9480   -1.0040 oh        1 6CN     -0.323000
     12 O4'         3.1310    4.5740   -3.0550 os        1 6CN     -0.325000
     13 C1'         2.2420    5.6540   -3.0200 c3        1 6CN      0.073000
     14 N1          1.2870    5.5720   -4.1710 n         1 6CN     -0.234000
     15 C6          1.4410    4.7000   -5.2370 c2        1 6CN      0.233000
     16 C5          0.4520    4.4810   -6.1700 c2        1 6CN     -0.336000
     17 C4         -0.8330    5.1550   -6.0630 c2        1 6CN      0.362000
     18 O4         -1.7980    4.9980   -6.8420 o         1 6CN     -0.401000
     19 N3         -0.9490    6.0800   -5.0190 n         1 6CN     -0.372000
     20 C2          0.0880    6.3210   -4.0910 c2        1 6CN      0.402000
     21 O2         -0.0830    7.2530   -3.2710 o         1 6CN     -0.391000
     22 C7          2.6990    4.0470   -5.4780 c1        1 6CN     -0.067000
     23 N8          3.6970    3.5220   -5.7620 n1        1 6CN     -0.025000
     24 H5'         2.3770    2.2730   -3.3070 h1        1 6CN      0.057000
     25 H5'A        1.0790    2.6650   -2.0690 h1        1 6CN      0.057000
     26 H4'         4.0280    3.4700   -1.5480 h1        1 6CN      0.093000
     27 H3'         1.5580    2.7900    0.3170 ho        1 6CN      0.267000
     28 HO3'        2.6680    4.6530    1.0070 ho        1 6CN      0.160000
     29 H2'         0.4740    5.3900   -1.6840 h1        1 6CN      0.049000
     30 HO2'        0.9760    7.4790   -1.3920 ho        1 6CN      0.176000
     31 H1'         2.8210    6.6040   -3.2020 h2        1 6CN      0.094000
     32 H5          0.5850    3.7890   -7.0080 ha        1 6CN      0.166000
     33 HN3        -1.8060    6.5640   -4.8720 hn        1 6CN      0.247000
@<TRIPOS>BOND
     1    1    2 1   
     2    2    3 1   
     3    2    4 1   
     4    2    5 1   
     5    3   27 1   
     6    5    6 1   
     7    6    7 1   
     8    6   24 1   
     9    6   25 1   
    10    7    8 1   
    11    7   12 1   
    12    7   26 1   
    13    8    9 1   
    14    8   10 1   
    15    9   28 1   
    16   10   11 1   
    17   10   13 1   
    18   10   29 1   
    19   11   30 1   
    20   12   13 1   
    21   13   14 1   
    22   13   31 1   
    23   14   15 1   
    24   14   20 1   
    25   15   16 1   
    26   15   22 1   
    27   16   17 1   
    28   16   32 1   
    29   17   18 1   
    30   17   19 1   
    31   19   20 1   
    32   19   33 1   
    33   20   21 1   
    34   22   23 1   
@<TRIPOS>SUBSTRUCTURE
     1 6CN         1 TEMP              0 ****  ****    0 ROOT
