@<TRIPOS>MOLECULE
6CP
   45    48     1     0     0
SMALL
bcc


@<TRIPOS>ATOM
      1 C2           0.0000     0.0000     0.0000 ca         1 6CP       0.726900
      2 C8           0.5080    -0.0020     4.3890 cc         1 6CP       0.264700
      3 C10          3.7710     0.0010    -0.2440 c3         1 6CP       0.196400
      4 C11          5.2990     0.0030    -0.3250 c3         1 6CP      -0.065700
      5 C12          5.7310    -0.1220    -1.7880 c3         1 6CP      -0.020900
      6 C13          7.2590    -0.1220    -1.8710 c3         1 6CP      -0.022900
      7 C14          7.8000     1.1860    -1.2880 c3         1 6CP      -0.025400
      8 C15          7.3690     1.3110     0.1740 c3         1 6CP      -0.022900
      9 C16          5.8400     1.3100     0.2570 c3         1 6CP      -0.020900
     10 C19         -4.1710     0.4130    -2.2580 ca         1 6CP      -0.012600
     11 C20         -4.8190    -0.3540    -1.3040 ca         1 6CP      -0.120000
     12 C21         -4.0930    -1.0020    -0.3230 ca         1 6CP      -0.068000
     13 C22         -2.7160    -0.8860    -0.2900 ca         1 6CP      -0.103000
     14 N1           1.3270     0.0000     0.0000 nb         1 6CP      -0.763000
     15 C6           2.0130     0.0000     1.1370 ca         1 6CP       0.721600
     16 O6           3.3690     0.0000     1.1280 os         1 6CP      -0.414100
     17 C5           1.3110    -0.0000     2.3420 ca         1 6CP      -0.602800
     18 N7           1.6580    -0.0010     3.6790 na         1 6CP       0.312700
     19 N9          -0.5170    -0.0020     3.5840 nd         1 6CP      -0.605700
     20 C4          -0.0940    -0.0010     2.3060 ca         1 6CP       0.598300
     21 N3          -0.7060     0.0050     1.1170 nb         1 6CP      -0.667000
     22 N2          -0.6690    -0.0000    -1.2150 nu         1 6CP      -0.289300
     23 C17         -2.0610    -0.1180    -1.2450 ca         1 6CP       0.011600
     24 C18         -2.7940     0.5280    -2.2340 ca         1 6CP      -0.139000
     25 H8           0.4480    -0.0020     5.4700 h5         1 6CP       0.029800
     26 H101         3.3820     0.8860    -0.7340 h1         1 6CP       0.024200
     27 H102         3.3840    -0.8830    -0.7340 h1         1 6CP       0.024200
     28 H11          5.6960    -0.8330     0.2390 hc         1 6CP       0.036700
     29 H121         5.3400     0.7160    -2.3510 hc         1 6CP       0.017700
     30 H122         5.3490    -1.0490    -2.1980 hc         1 6CP       0.017700
     31 H131         7.5630    -0.2070    -2.9070 hc         1 6CP       0.014200
     32 H132         7.6500    -0.9580    -1.3030 hc         1 6CP       0.014200
     33 H141         8.8820     1.1840    -1.3460 hc         1 6CP       0.013700
     34 H142         7.4040     2.0220    -1.8530 hc         1 6CP       0.013700
     35 H151         7.7510     2.2380     0.5840 hc         1 6CP       0.014200
     36 H152         7.7600     0.4720     0.7370 hc         1 6CP       0.014200
     37 H161         5.4490     2.1460    -0.3100 hc         1 6CP       0.017700
     38 H162         5.5360     1.3960     1.2930 hc         1 6CP       0.017700
     39 H20         -5.8980    -0.4440    -1.3260 ha         1 6CP       0.113000
     40 H21         -4.6030    -1.6000     0.4220 ha         1 6CP       0.107000
     41 H22         -2.1470    -1.3940     0.4790 ha         1 6CP       0.141000
     42 H7           2.5870    -0.0010     4.0520 hn         1 6CP       0.131700
     43 H2          -0.1520     0.0500    -2.0700 hn         1 6CP       0.291800
     44 H18         -2.2870     1.1270    -2.9800 ha         1 6CP       0.116000
     45 Cl1         -5.0870     1.2240    -3.4890 cl         1 6CP      -0.036400
@<TRIPOS>BOND
     1     1    14 ar  
     2     1    21 ar  
     3     1    22 1   
     4     2    18 1   
     5     2    19 2   
     6     2    25 1   
     7     3     4 1   
     8     3    16 1   
     9     3    26 1   
    10     3    27 1   
    11     4     5 1   
    12     4     9 1   
    13     4    28 1   
    14     5     6 1   
    15     5    29 1   
    16     5    30 1   
    17     6     7 1   
    18     6    31 1   
    19     6    32 1   
    20     7     8 1   
    21     7    33 1   
    22     7    34 1   
    23     8     9 1   
    24     8    35 1   
    25     8    36 1   
    26     9    37 1   
    27     9    38 1   
    28    10    11 ar  
    29    10    24 ar  
    30    10    45 1   
    31    11    12 ar  
    32    11    39 1   
    33    12    13 ar  
    34    12    40 1   
    35    13    23 ar  
    36    13    41 1   
    37    14    15 ar  
    38    15    16 1   
    39    15    17 ar  
    40    17    18 1   
    41    17    20 ar  
    42    18    42 1   
    43    19    20 1   
    44    20    21 ar  
    45    22    23 1   
    46    22    43 1   
    47    23    24 ar  
    48    24    44 1   
@<TRIPOS>SUBSTRUCTURE
     1 6CP         1 TEMP              0 ****  ****    0 ROOT
