@<TRIPOS>MOLECULE
6CR
   32    34     1     0     0
SMALL
bcc


@<TRIPOS>ATOM
      1 N1           0.0000     0.0000     0.0000 nb         1 6CR      -0.687000
      2 C2           1.3270     0.0000     0.0000 ca         1 6CR       0.722900
      3 N3           2.0310     0.0000     1.1210 nb         1 6CR      -0.690000
      4 C4           1.4210    -0.0010     2.2980 ca         1 6CR       0.295800
      5 C5           0.0130    -0.0020     2.3390 ca         1 6CR      -0.233200
      6 C6          -0.6860    -0.0010     1.1300 ca         1 6CR       0.537300
      7 N7          -0.3460    -0.0030     3.6480 nc         1 6CR      -0.476100
      8 C8           0.7220    -0.0040     4.3900 cd         1 6CR       0.256700
      9 N9           1.8380    -0.0030     3.6050 na         1 6CR       0.190000
     10 C1'          3.2260    -0.0030     4.0720 c3         1 6CR       0.152800
     11 Cl1         -2.4230    -0.0010     1.1120 cl         1 6CR      -0.059000
     12 C2'          3.7510     1.4440     4.2010 c3         1 6CR       0.127100
     13 O2'          4.5160     1.8030     3.0490 oh         1 6CR      -0.542800
     14 N20          1.9980     0.0000    -1.2120 nv         1 6CR      -0.498500
     15 C3'          4.6460     1.4080     5.4590 c3         1 6CR       0.128100
     16 O3'          5.9950     1.7430     5.1250 oh         1 6CR      -0.549800
     17 C4'          4.5560    -0.0560     5.9420 c3         1 6CR       0.154100
     18 O4'          3.3070    -0.5450     5.4080 os         1 6CR      -0.383600
     19 C5'          4.5410    -0.1130     7.4720 c3         1 6CR       0.225400
     20 O5'          4.5750    -1.4770     7.8980 oh         1 6CR      -0.578800
     21 H8           0.7250    -0.0070     5.4740 h5         1 6CR       0.040800
     22 H1'          3.8560    -0.5710     3.3990 h2         1 6CR       0.069700
     23 H2'          2.9270     2.1320     4.3450 h1         1 6CR       0.019700
     24 HO2'         4.4210     2.7260     2.8830 ho         1 6CR       0.393000
     25 HN20         2.9990    -0.0010    -1.2300 hn         1 6CR       0.276800
     26 HN2A         1.4820     0.0010    -2.0700 hn         1 6CR       0.276800
     27 H3'          4.2590     2.0790     6.2160 h1         1 6CR       0.013700
     28 HO3'         6.2770     2.4720     5.6510 ho         1 6CR       0.387000
     29 H4'          5.3840    -0.6330     5.5460 h1         1 6CR       0.053700
     30 H5'          3.6380     0.3580     7.8410 h1         1 6CR      -0.006800
     31 H5'A         5.4060     0.4090     7.8610 h1         1 6CR      -0.006800
     32 HO5'         4.7780    -1.5140     8.8180 ho         1 6CR       0.391000
@<TRIPOS>BOND
     1     1     2 ar  
     2     1     6 ar  
     3     2     3 ar  
     4     2    14 1   
     5     3     4 ar  
     6     4     5 ar  
     7     4     9 1   
     8     5     6 ar  
     9     5     7 1   
    10     6    11 1   
    11     7     8 2   
    12     8     9 1   
    13     8    21 1   
    14     9    10 1   
    15    10    12 1   
    16    10    18 1   
    17    10    22 1   
    18    12    13 1   
    19    12    15 1   
    20    12    23 1   
    21    13    24 1   
    22    14    25 1   
    23    14    26 1   
    24    15    16 1   
    25    15    17 1   
    26    15    27 1   
    27    16    28 1   
    28    17    18 1   
    29    17    19 1   
    30    17    29 1   
    31    19    20 1   
    32    19    30 1   
    33    19    31 1   
    34    20    32 1   
@<TRIPOS>SUBSTRUCTURE
     1 6CR         1 TEMP              0 ****  ****    0 ROOT
