@<TRIPOS>MOLECULE
6CS
   20    20     1     0     0
SMALL
bcc


@<TRIPOS>ATOM
      1 O          -0.1510   -0.3980   -0.0640 o         1 6CS     -0.821800
      2 C           1.1000   -0.3540   -0.0320 c         1 6CS      0.936600
      3 OXT         1.8720   -0.5640   -1.0140 o         1 6CS     -0.821800
      4 CA          1.8740   -0.0900    1.3190 c3        1 6CS     -0.065500
      5 N           1.1070    0.5330    2.3570 n2        1 6CS     -0.548900
      6 CAI         1.0840    0.0400    3.5590 c2        1 6CS      0.487200
      7 CAA         0.2340    0.6940    4.6260 c3        1 6CS     -0.105400
      8 NAG         1.8490   -1.0850    4.0560 nh        1 6CS     -0.804200
      9 CG2         2.9130   -1.4970    3.1610 c3        1 6CS      0.146800
     10 CB          2.5300   -1.4460    1.6720 c3        1 6CS      0.111100
     11 OG1         3.7150   -1.6440    0.9230 oh        1 6CS     -0.640800
     12 HA          2.6950    0.6420    1.0540 h1        1 6CS      0.073700
     13 HN          1.2260   -1.8460    4.2540 hn        1 6CS      0.356800
     14 HAA1       -0.3510    1.5460    4.2050 hc        1 6CS      0.038033
     15 HAA2        0.8880    1.0750    5.4470 hc        1 6CS      0.038033
     16 HAA3       -0.4800   -0.0530    5.0500 hc        1 6CS      0.038033
     17 HG21        3.7850   -0.8060    3.3290 h1        1 6CS      0.046700
     18 HG22        3.2420   -2.5380    3.4260 h1        1 6CS      0.046700
     19 HB          1.8090   -2.2800    1.4370 h1        1 6CS      0.038700
     20 HOG1        3.4930   -1.4010    0.0050 ho        1 6CS      0.452000
@<TRIPOS>BOND
     1    1    2 1
     2    2    3 1
     3    2    4 1
     4    4    5 1
     5    4   10 1
     6    4   12 1
     7    5    6 2
     8    6    7 1
     9    6    8 1
    10    7   14 1
    11    7   15 1
    12    7   16 1
    13    8    9 1
    14    8   13 1
    15    9   10 1
    16    9   17 1
    17    9   18 1
    18   10   11 1
    19   10   19 1
    20   11   20 1
@<TRIPOS>SUBSTRUCTURE
     1 6CS         1 TEMP              0 ****  ****    0 ROOT
