@<TRIPOS>MOLECULE
6CX
   57    61     1     0     0
SMALL
bcc


@<TRIPOS>ATOM
      1 C2           0.0000     0.0000     0.0000 c2         1 6CX       0.011000
      2 C4           1.9940     0.0000     1.1440 c2         1 6CX      -0.134000
      3 C5           1.2850     0.0000     2.3570 c2         1 6CX      -0.237000
      4 C6          -0.1190     0.0120     2.3040 c2         1 6CX       0.042000
      5 C8           3.3980    -0.0010     2.8440 c2         1 6CX      -0.186000
      6 N9           3.3230    -0.0000     1.4830 na         1 6CX       0.288000
      7 C10          8.8680    -2.0060     0.2570 c3         1 6CX      -0.004000
      8 CG           9.5680    -1.3570     2.4820 c3         1 6CX      -0.113000
      9 CB           9.0200    -1.0080     3.8680 c3         1 6CX      -0.114000
     10 CA          10.1310    -1.1570     4.9090 c3         1 6CX      -0.330000
     11 C            9.6250    -0.6970     6.2510 c2         1 6CX       0.371000
     12 O            9.5790     0.6140     6.5380 o          1 6CX      -0.550500
     13 OXT          9.2630    -1.5080     7.0710 o          1 6CX      -0.550500
     14 N           10.5370    -2.5670     4.9940 nz         1 6CX       0.720000
     15 C5'          8.0360     0.0450     1.2390 c3         1 6CX      -0.094000
     16 C4'          6.7470     0.0210     0.4160 DU         1 6CX       0.178000
     17 C3'          6.3330     1.4560     0.0200 c3         1 6CX      -0.398000
     18 C2'          4.7910     1.4410     0.1130 c3         1 6CX      -0.125000
     19 O2'          4.2100     1.7230    -1.1620 oh         1 6CX      -0.269000
     20 C1'          4.4550    -0.0020     0.5530 c3         1 6CX       0.058000
     21 N3           1.3170     0.0000     0.0000 n2         1 6CX      -0.129000
     22 N1          -0.7090     0.0060     1.1130 n2         1 6CX      -0.183000
     23 N6          -0.8710     0.0120     3.4670 nv         1 6CX       0.073000
     24 N7           2.2010     0.0000     3.3550 n2         1 6CX      -0.060000
     25 O4'          5.6490    -0.4730     1.2140 os         1 6CX      -0.221000
     26 O3'          6.7530     1.7480    -1.3140 oh         1 6CX      -0.270000
     27 C51          8.8470    -3.4980     0.4640 c2         1 6CX      -0.136000
     28 C52          7.8230    -4.3220     0.1760 c2         1 6CX      -0.321000
     29 N53          8.2230    -5.5860     0.5180 na         1 6CX       0.377000
     30 C54          9.4790    -5.4900     1.0040 c2         1 6CX      -0.283000
     31 N55          9.8480    -4.2390     0.9640 n2         1 6CX      -0.117000
     32 H21         -0.5210    -0.0050    -0.9500 h5         1 6CX       0.135000
     33 H81          4.3170    -0.0030     3.4160 h5         1 6CX       0.178000
     34 H102         9.8670    -1.6940    -0.0230 h1         1 6CX       0.057500
     35 H101         8.1740    -1.7410    -0.5310 h1         1 6CX       0.057500
     36 HG2         10.0080    -2.3470     2.5060 h1         1 6CX       0.054500
     37 HG3         10.3240    -0.6340     2.2000 h1         1 6CX       0.054500
     38 HB2          8.2040    -1.6780     4.1120 hc         1 6CX       0.100000
     39 HB3          8.6610     0.0130     3.8670 hc         1 6CX       0.100000
     40 HA          10.9820    -0.5540     4.6180 hx         1 6CX       0.124000
     41 H2          11.3550    -2.0580     4.7240 hn         1 6CX       0.047333
     42 H           10.1560    -3.1540     4.2790 hn         1 6CX       0.047333
     43 H5'2         8.8060     0.5710     0.6890 h1         1 6CX       0.083000
     44 H5'1         7.8540     0.5510     2.1800 h1         1 6CX       0.083000
     45 H4'1         6.8700    -0.5910    -0.4700 ha         1 6CX       0.036000
     46 H3'1         6.4850     0.5630    -0.5750 DU         1 6CX       0.260000
     47 H2'1         5.1060     2.2090     0.8080 h1         1 6CX       0.197000
     48 H2'2         3.9020     2.3520    -0.5300 ho         1 6CX       0.228000
     49 H1'1         4.2380    -0.6160    -0.3130 h2         1 6CX       0.103000
     50 H61          0.0070     0.3380     3.8200 hn         1 6CX       0.075500
     51 H62         -1.6850     0.5900     3.5370 hn         1 6CX       0.075500
     52 H3'2         7.1150     2.6180    -1.3460 ho         1 6CX       0.219000
     53 H521         6.8660    -4.0400    -0.2450 h4         1 6CX       0.159000
     54 H531         7.6840    -6.4240     0.4270 hn         1 6CX       0.077000
     55 H541        10.0830    -6.3150     1.3620 h5         1 6CX       0.160000
     56 HN3         10.5580    -2.9390     5.9230 hn         1 6CX       0.047333
     57 ND           8.4760    -1.3310     1.5020 n3         1 6CX      -0.054000
@<TRIPOS>BOND
     1     1    21 1   
     2     1    22 1   
     3     1    32 1   
     4     2     3 1   
     5     2     6 1   
     6     2    21 1   
     7     3     4 1   
     8     3    24 1   
     9     4    22 1   
    10     4    23 1   
    11     5     6 1   
    12     5    24 1   
    13     5    33 1   
    14     6    20 1   
    15     7    27 1   
    16     7    34 1   
    17     7    35 1   
    18     7    57 1   
    19     8     9 1   
    20     8    36 1   
    21     8    37 1   
    22     8    57 1   
    23     9    10 1   
    24     9    38 1   
    25     9    39 1   
    26    10    11 1   
    27    10    14 1   
    28    10    40 1   
    29    11    12 1   
    30    11    13 1   
    31    14    41 1   
    32    14    42 1   
    33    14    56 1   
    34    15    16 1   
    35    15    43 1   
    36    15    44 1   
    37    15    57 1   
    38    16    17 1   
    39    16    25 1   
    40    16    45 1   
    41    16    46 1   
    42    17    18 1   
    43    17    26 1   
    44    17    46 1   
    45    18    19 1   
    46    18    20 1   
    47    18    47 1   
    48    19    48 1   
    49    20    25 1   
    50    20    49 1   
    51    23    50 1   
    52    23    51 1   
    53    26    52 1   
    54    27    28 1   
    55    27    31 1   
    56    28    29 1   
    57    28    53 1   
    58    29    30 1   
    59    29    54 1   
    60    30    31 1   
    61    30    55 1   
@<TRIPOS>SUBSTRUCTURE
     1 6CX         1 TEMP              0 ****  ****    0 ROOT
