@<TRIPOS>MOLECULE
molecule
   57    60     1     0     0
SMALL
bcc


@<TRIPOS>ATOM
      1 C2           0.0000     0.0000     0.0000 ca         1 6CX       0.725900
      2 C4           1.9940     0.0000     1.1440 ca         1 6CX       0.469800
      3 C5           1.2850     0.0000     2.3570 ca         1 6CX      -0.205200
      4 C6          -0.1190     0.0120     2.3040 ca         1 6CX       0.686200
      5 C8           3.3980    -0.0010     2.8440 cc         1 6CX       0.450700
      6 N9           3.3230    -0.0000     1.4830 na         1 6CX      -0.252000
      7 C10          8.8680    -2.0060     0.2570 c3         1 6CX       0.144500
      8 CG           9.5680    -1.3570     2.4820 c3         1 6CX       0.142800
      9 CB           9.0200    -1.0080     3.8680 c3         1 6CX      -0.093400
     10 CA          10.1310    -1.1570     4.9090 c3         1 6CX      -0.035500
     11 C            9.6250    -0.6970     6.2510 c          1 6CX       0.867600
     12 O            9.5790     0.6140     6.5380 o          1 6CX      -0.772800
     13 OXT          9.2630    -1.5080     7.0710 o          1 6CX      -0.772800
     14 N           10.5370    -2.5670     4.9940 nz         1 6CX      -0.860600
     15 C5'          8.0360     0.0450     1.2390 c3         1 6CX       0.180800
     16 C4'          6.7470     0.0210     0.4160 c3         1 6CX       0.204100
     17 C3'          6.3330     1.4560     0.0200 c3         1 6CX      -0.275900
     18 C2'          4.7910     1.4410     0.1130 c3         1 6CX      -0.037900
     19 O2'          4.2100     1.7230    -1.1620 oh         1 6CX      -0.536800
     20 C1'          4.4550    -0.0020     0.5530 c3         1 6CX       0.245800
     21 N3           1.3170     0.0000     0.0000 nb         1 6CX      -0.774000
     22 N1          -0.7090     0.0060     1.1130 nb         1 6CX      -0.800000
     23 N6          -0.8710     0.0120     3.4670 nv         1 6CX      -0.857500
     24 N7           2.2010     0.0000     3.3550 nd         1 6CX      -0.586100
     25 O4'          5.6490    -0.4730     1.2140 os         1 6CX      -0.373600
     26 O3'          6.7530     1.7480    -1.3140 oh         1 6CX      -0.575800
     27 C51          8.8470    -3.4980     0.4640 cd         1 6CX       0.310600
     28 C52          7.8230    -4.3220     0.1760 cc         1 6CX      -0.237600
     29 N53          8.2230    -5.5860     0.5180 na         1 6CX      -0.290900
     30 C54          9.4790    -5.4900     1.0040 cc         1 6CX       0.394400
     31 N55          9.8480    -4.2390     0.9640 nd         1 6CX      -0.725000
     32 H21         -0.5210    -0.0050    -0.9500 h5         1 6CX       0.064100
     33 H81          4.3170    -0.0030     3.4160 h5         1 6CX       0.098800
     34 H102         9.8670    -1.6940    -0.0230 h1         1 6CX       0.047700
     35 H101         8.1740    -1.7410    -0.5310 h1         1 6CX       0.047700
     36 HG2         10.0080    -2.3470     2.5060 h1         1 6CX       0.036700
     37 HG3         10.3240    -0.6340     2.2000 h1         1 6CX       0.036700
     38 HB2          8.2040    -1.6780     4.1120 hc         1 6CX       0.094200
     39 HB3          8.6610     0.0130     3.8670 hc         1 6CX       0.094200
     40 HA          10.9820    -0.5540     4.6180 hx         1 6CX       0.097700
     41 H2          11.3550    -2.0580     4.7240 hn         1 6CX       0.468133
     42 H           10.1560    -3.1540     4.2790 hn         1 6CX       0.468133
     43 H5'2         8.8060     0.5710     0.6890 h1         1 6CX       0.071700
     44 H5'1         7.8540     0.5510     2.1800 h1         1 6CX       0.071700
     45 H4'1         6.8700    -0.5910    -0.4700 h1         1 6CX       0.024700
     46 H3'1         6.4850     0.5630    -0.5750 h1         1 6CX       0.270700
     47 H2'1         5.1060     2.2090     0.8080 h1         1 6CX       0.180700
     48 H2'2         3.9020     2.3520    -0.5300 ho         1 6CX       0.427000
     49 H1'1         4.2380    -0.6160    -0.3130 h2         1 6CX       0.104700
     50 H61          0.0070     0.3380     3.8200 hn         1 6CX       0.409800
     51 H62         -1.6850     0.5900     3.5370 hn         1 6CX       0.409800
     52 H3'2         7.1150     2.6180    -1.3460 ho         1 6CX       0.418000
     53 H521         6.8660    -4.0400    -0.2450 h4         1 6CX       0.183000
     54 H531         7.6840    -6.4240     0.4270 hn         1 6CX       0.306700
     55 H541        10.0830    -6.3150     1.3620 h5         1 6CX       0.066100
     56 HN3         10.5580    -2.9390     5.9230 hn         1 6CX       0.468133
     57 ND           8.4760    -1.3310     1.5020 n3         1 6CX      -0.725600
@<TRIPOS>BOND
     1    23     4 1   
     2     4     3 ar  
     3     4    22 ar  
     4    24     3 1   
     5    24     5 2   
     6     3     2 ar  
     7    22     1 ar  
     8     5     6 1   
     9     1    21 ar  
    10     2     6 1   
    11     2    21 ar  
    12     6    20 1   
    13    30    29 1   
    14    30    31 2   
    15    29    28 1   
    16    20    18 1   
    17    20    25 1   
    18    31    27 1   
    19    18    19 1   
    20    18    17 1   
    21    28    27 2   
    22    25    16 1   
    23    27     7 1   
    24    15    16 1   
    25    15    57 1   
    26    16    17 1   
    27    17    26 1   
    28     7    57 1   
    29    57     8 1   
    30     8     9 1   
    31     9    10 1   
    32    14    10 1   
    33    10    11 1   
    34    12    11 1   
    35    11    13 1   
    36     1    32 1   
    37     5    33 1   
    38     7    34 1   
    39     7    35 1   
    40     8    36 1   
    41     8    37 1   
    42     9    38 1   
    43     9    39 1   
    44    10    40 1   
    45    14    41 1   
    46    14    42 1   
    47    15    43 1   
    48    15    44 1   
    49    16    45 1   
    50    17    46 1   
    51    18    47 1   
    52    19    48 1   
    53    20    49 1   
    54    23    50 1   
    55    23    51 1   
    56    26    52 1   
    57    28    53 1   
    58    29    54 1   
    59    30    55 1   
    60    56    14 1   
@<TRIPOS>SUBSTRUCTURE
     1 6CX         1 TEMP              0 ****  ****    0 ROOT
