@<TRIPOS>MOLECULE
molecule
   61    65     1     0     0
SMALL
bcc


@<TRIPOS>ATOM
      1 C2           0.0000     0.0000     0.0000 c3         1 6CY       0.083000
      2 C41         -4.7220    -1.4930     7.1930 cp         1 6CY      -0.216300
      3 C42         -4.3310    -2.1710     6.0390 ca         1 6CY       0.502200
      4 C45         -6.4990    -2.8320     5.5980 ca         1 6CY       0.695600
      5 C46         -6.9760    -2.1750     6.7440 ca         1 6CY      -0.159300
      6 C47         -6.0690    -1.4910     7.5590 ca         1 6CY      -0.017000
      7 C49         -8.3700    -2.2050     7.0720 cg         1 6CY       0.250800
      8 C52         -6.8170    -4.1460     3.6480 c3         1 6CY       0.135700
      9 C56          2.1550    -0.0010    -1.1600 c          1 6CY       0.662100
     10 C58          1.4200     0.1140    -2.4700 c3         1 6CY      -0.170100
     11 C12          2.1770     0.0000     1.2880 c3         1 6CY       0.083000
     12 C15         -0.4780    -1.1950     3.2750 c          1 6CY       0.677700
     13 C17          0.2400    -1.3180     4.5620 ca         1 6CY      -0.150600
     14 C18         -0.2440    -0.6690     5.6960 ca         1 6CY      -0.063000
     15 C20          0.4380    -0.7910     6.9040 cp         1 6CY      -0.163500
     16 C21          1.6010    -1.5620     6.9720 ca         1 6CY      -0.063000
     17 C23          2.0750    -2.2020     5.8440 ca         1 6CY      -0.143000
     18 C25          1.4000    -2.0920     4.6440 ca         1 6CY      -0.106000
     19 C27         -0.0680    -0.1040     8.1130 cp         1 6CY       0.541800
     20 C29          0.3140     1.1750    10.0000 ca         1 6CY       0.683900
     21 N1           1.4700     0.0000     0.0000 n          1 6CY      -0.501800
     22 C5          -0.4950    -1.1940     0.8270 c3         1 6CY       0.084000
     23 N8           0.2100    -1.1960     2.1160 n          1 6CY      -0.483800
     24 C9           1.6800    -1.1980     2.1200 c3         1 6CY       0.084000
     25 O16         -1.6890    -1.0930     3.2610 o          1 6CY      -0.608100
     26 N28          0.7550     0.5570     8.9180 nb         1 6CY      -0.738000
     27 N31         -0.9480     1.1800    10.3570 nb         1 6CY      -0.724000
     28 C32         -1.8680     0.5470     9.6160 ca         1 6CY       0.441600
     29 C33         -1.4470    -0.1310     8.4440 ca         1 6CY      -0.268600
     30 C34         -2.3840    -0.7980     7.6530 ca         1 6CY      -0.101000
     31 C36         -3.7170    -0.7870     8.0270 cp         1 6CY      -0.020000
     32 C37         -4.1260    -0.1150     9.1880 ca         1 6CY      -0.103000
     33 C39         -3.2260     0.5400     9.9700 ca         1 6CY      -0.165300
     34 N44         -5.2130    -2.8060     5.2930 nb         1 6CY      -0.763000
     35 N50         -9.4780    -2.2440     7.3200 n1         1 6CY      -0.356800
     36 O51         -7.3640    -3.4990     4.7980 os         1 6CY      -0.428100
     37 O57          3.3650    -0.0930    -1.1500 o          1 6CY      -0.609100
     38 H1          -0.3490    -0.1060    -1.0200 h1         1 6CY       0.065950
     39 H2          -0.3490     0.9450     0.3990 h1         1 6CY       0.065950
     40 H3          -3.2890    -2.1810     5.7440 h4         1 6CY       0.043100
     41 H4          -6.3870    -0.9690     8.4520 ha         1 6CY       0.156000
     42 H5          -7.6130    -4.6190     3.0870 h1         1 6CY       0.051367
     43 H6          -6.1010    -4.8960     3.9620 h1         1 6CY       0.051367
     44 H7          -6.3210    -3.4130     3.0230 h1         1 6CY       0.051367
     45 H8           2.1190    -0.0050    -3.2880 hc         1 6CY       0.062033
     46 H9           0.6610    -0.6570    -2.5280 hc         1 6CY       0.062033
     47 H10          0.9500     1.0880    -2.5360 hc         1 6CY       0.062033
     48 H11          3.2390    -0.1060     1.1020 h1         1 6CY       0.065950
     49 H12          1.9950     0.9450     1.7860 h1         1 6CY       0.065950
     50 H13         -1.0870     0.0060     5.6150 ha         1 6CY       0.160000
     51 H14          2.1330    -1.6580     7.9110 ha         1 6CY       0.152000
     52 H15          2.9770    -2.8000     5.8990 ha         1 6CY       0.142000
     53 H16          1.8320    -2.5190     3.7470 ha         1 6CY       0.148000
     54 H17          1.0080     1.7080    10.6390 h5         1 6CY       0.062100
     55 H18         -0.2120    -2.1100     0.3220 h1         1 6CY       0.070200
     56 H19         -1.5750    -1.1460     0.8980 h1         1 6CY       0.070200
     57 H20          2.1360    -1.1540     3.1020 h1         1 6CY       0.070200
     58 H21          1.9840    -2.1150     1.6290 h1         1 6CY       0.070200
     59 H22         -2.0560    -1.3810     6.8010 ha         1 6CY       0.154000
     60 H23         -5.0680    -0.3690     9.6580 ha         1 6CY       0.140000
     61 H24         -3.5540     1.0510    10.8670 ha         1 6CY       0.157000
@<TRIPOS>BOND
     1    27    20 ar
     2    27    28 ar
     3    33    28 ar
     4    33    32 ar
     5    20    26 ar
     6    28    29 ar
     7    32    31 ar
     8    26    19 ar
     9    29    19 ar
    10    29    30 ar
    11     3    34 ar
    12     3     2 ar
    13    31    30 ar
    14    31     2 1
    15    19    15 1
    16    34     4 ar
    17    16    15 ar
    18    16    17 ar
    19     2     6 ar
    20    15    14 ar
    21    17    18 ar
    22     4    36 1
    23     4     5 ar
    24     6     5 ar
    25    14    13 ar
    26    18    13 ar
    27    36     8 1
    28     5     7 1
    29    24    11 1
    30    24    23 1
    31    13    12 1
    32    11    21 1
    33    10     9 1
    34    23    12 1
    35    23    22 1
    36    12    25 2
    37     7    35 3
    38    21     9 1
    39    21     1 1
    40     9    37 2
    41    22     1 1
    42     1    38 1
    43     1    39 1
    44     3    40 1
    45     6    41 1
    46     8    42 1
    47     8    43 1
    48     8    44 1
    49    10    45 1
    50    10    46 1
    51    10    47 1
    52    11    48 1
    53    11    49 1
    54    14    50 1
    55    16    51 1
    56    17    52 1
    57    18    53 1
    58    20    54 1
    59    22    55 1
    60    22    56 1
    61    24    57 1
    62    24    58 1
    63    30    59 1
    64    32    60 1
    65    33    61 1
@<TRIPOS>SUBSTRUCTURE
     1 6CY         1 TEMP              0 ****  ****    0 ROOT
