@<TRIPOS>MOLECULE
6CY
   61    65     1     0     0
SMALL
bcc


@<TRIPOS>ATOM
      1 C2           0.0000     0.0000     0.0000 c3         1 6CY       0.029000
      2 C41         -4.7220    -1.4930     7.1930 cp         1 6CY      -0.210300
      3 C42         -4.3310    -2.1710     6.0390 ca         1 6CY       0.479200
      4 C45         -6.4990    -2.8320     5.5980 ca         1 6CY       0.653600
      5 C46         -6.9760    -2.1750     6.7440 ca         1 6CY      -0.117300
      6 C47         -6.0690    -1.4910     7.5590 ca         1 6CY      -0.002000
      7 C49         -8.3700    -2.2050     7.0720 cg         1 6CY       0.242800
      8 C52         -6.8170    -4.1460     3.6480 c3         1 6CY       0.255700
      9 C56          2.1550    -0.0010    -1.1600 c          1 6CY       0.591100
     10 C58          1.4200     0.1140    -2.4700 c3         1 6CY      -0.072100
     11 C12          2.1770     0.0000     1.2880 c3         1 6CY       0.029000
     12 C15         -0.4780    -1.1950     3.2750 c          1 6CY       0.614700
     13 C17          0.2400    -1.3180     4.5620 ca         1 6CY      -0.155600
     14 C18         -0.2440    -0.6690     5.6960 ca         1 6CY      -0.039000
     15 C20          0.4380    -0.7910     6.9040 cp         1 6CY      -0.165500
     16 C21          1.6010    -1.5620     6.9720 ca         1 6CY      -0.039000
     17 C23          2.0750    -2.2020     5.8440 ca         1 6CY      -0.109000
     18 C25          1.4000    -2.0920     4.6440 ca         1 6CY      -0.100000
     19 C27         -0.0680    -0.1040     8.1130 cp         1 6CY       0.492800
     20 C29          0.3140     1.1750    10.0000 ca         1 6CY       0.626900
     21 N1           1.4700     0.0000     0.0000 n          1 6CY      -0.172800
     22 C5          -0.4950    -1.1940     0.8270 c3         1 6CY       0.020000
     23 N8           0.2100    -1.1960     2.1160 n          1 6CY      -0.143800
     24 C9           1.6800    -1.1980     2.1200 c3         1 6CY       0.020000
     25 O16         -1.6890    -1.0930     3.2610 o          1 6CY      -0.649100
     26 N28          0.7550     0.5570     8.9180 nb         1 6CY      -0.621000
     27 N31         -0.9480     1.1800    10.3570 nb         1 6CY      -0.612000
     28 C32         -1.8680     0.5470     9.6160 ca         1 6CY       0.392600
     29 C33         -1.4470    -0.1310     8.4440 ca         1 6CY      -0.252600
     30 C34         -2.3840    -0.7980     7.6530 ca         1 6CY      -0.092000
     31 C36         -3.7170    -0.7870     8.0270 cp         1 6CY      -0.007000
     32 C37         -4.1260    -0.1150     9.1880 ca         1 6CY      -0.086000
     33 C39         -3.2260     0.5400     9.9700 ca         1 6CY      -0.136300
     34 N44         -5.2130    -2.8060     5.2930 nb         1 6CY      -0.653000
     35 N50         -9.4780    -2.2440     7.3200 n1         1 6CY      -0.374800
     36 O51         -7.3640    -3.4990     4.7980 os         1 6CY      -0.420100
     37 O57          3.3650    -0.0930    -1.1500 o          1 6CY      -0.644100
     38 H1          -0.3490    -0.1060    -1.0200 h1         1 6CY       0.039200
     39 H2          -0.3490     0.9450     0.3990 h1         1 6CY       0.039200
     40 H3          -3.2890    -2.1810     5.7440 h4         1 6CY      -0.000900
     41 H4          -6.3870    -0.9690     8.4520 ha         1 6CY       0.126000
     42 H5          -7.6130    -4.6190     3.0870 h1         1 6CY       0.004033
     43 H6          -6.1010    -4.8960     3.9620 h1         1 6CY       0.004033
     44 H7          -6.3210    -3.4130     3.0230 h1         1 6CY       0.004033
     45 H8           2.1190    -0.0050    -3.2880 hc         1 6CY       0.026367
     46 H9           0.6610    -0.6570    -2.5280 hc         1 6CY       0.026367
     47 H10          0.9500     1.0880    -2.5360 hc         1 6CY       0.026367
     48 H11          3.2390    -0.1060     1.1020 h1         1 6CY       0.039200
     49 H12          1.9950     0.9450     1.7860 h1         1 6CY       0.039200
     50 H13         -1.0870     0.0060     5.6150 ha         1 6CY       0.133000
     51 H14          2.1330    -1.6580     7.9110 ha         1 6CY       0.119000
     52 H15          2.9770    -2.8000     5.8990 ha         1 6CY       0.111000
     53 H16          1.8320    -2.5190     3.7470 ha         1 6CY       0.129000
     54 H17          1.0080     1.7080    10.6390 h5         1 6CY       0.000100
     55 H18         -0.2120    -2.1100     0.3220 h1         1 6CY       0.045950
     56 H19         -1.5750    -1.1460     0.8980 h1         1 6CY       0.045950
     57 H20          2.1360    -1.1540     3.1020 h1         1 6CY       0.045950
     58 H21          1.9840    -2.1150     1.6290 h1         1 6CY       0.045950
     59 H22         -2.0560    -1.3810     6.8010 ha         1 6CY       0.141000
     60 H23         -5.0680    -0.3690     9.6580 ha         1 6CY       0.114000
     61 H24         -3.5540     1.0510    10.8670 ha         1 6CY       0.124000
@<TRIPOS>BOND
     1     1    21 1   
     2     1    22 1   
     3     1    38 1   
     4     1    39 1   
     5     2     3 ar  
     6     2     6 ar  
     7     2    31 1   
     8     3    34 ar  
     9     3    40 1   
    10     4     5 ar  
    11     4    34 ar  
    12     4    36 1   
    13     5     6 ar  
    14     5     7 1   
    15     6    41 1   
    16     7    35 3   
    17     8    36 1   
    18     8    42 1   
    19     8    43 1   
    20     8    44 1   
    21     9    10 1   
    22     9    21 1   
    23     9    37 2   
    24    10    45 1   
    25    10    46 1   
    26    10    47 1   
    27    11    21 1   
    28    11    24 1   
    29    11    48 1   
    30    11    49 1   
    31    12    13 1   
    32    12    23 1   
    33    12    25 2   
    34    13    14 ar  
    35    13    18 ar  
    36    14    15 ar  
    37    14    50 1   
    38    15    16 ar  
    39    15    19 1   
    40    16    17 ar  
    41    16    51 1   
    42    17    18 ar  
    43    17    52 1   
    44    18    53 1   
    45    19    26 ar  
    46    19    29 ar  
    47    20    26 ar  
    48    20    27 ar  
    49    20    54 1   
    50    22    23 1   
    51    22    55 1   
    52    22    56 1   
    53    23    24 1   
    54    24    57 1   
    55    24    58 1   
    56    27    28 ar  
    57    28    29 ar  
    58    28    33 ar  
    59    29    30 ar  
    60    30    31 ar  
    61    30    59 1   
    62    31    32 ar  
    63    32    33 ar  
    64    32    60 1   
    65    33    61 1   
@<TRIPOS>SUBSTRUCTURE
     1 6CY         1 TEMP              0 ****  ****    0 ROOT
