@<TRIPOS>MOLECULE
molecule
   55    57     1     0     0
SMALL
bcc


@<TRIPOS>ATOM
      1 O1           0.0000     0.0000     0.0000 o          1 6D0      -0.773300
      2 C1           1.2080     0.0000     0.0000 c          1 6D0       0.869600
      3 C2           1.9620     0.0000     1.3040 c3         1 6D0      -0.017500
      4 N1           1.0800     0.4740     2.3800 nz         1 6D0      -0.793600
      5 C3           2.4350    -1.4200     1.6210 c3         1 6D0      -0.092400
      6 C4           3.3050    -1.4000     2.8790 c3         1 6D0       0.141800
      7 N2           3.7590    -2.7640     3.1820 n3         1 6D0      -0.693600
      8 C5           4.3950    -2.8250     4.5050 c3         1 6D0       0.157800
      9 C6           3.3190    -2.7840     5.5910 c3         1 6D0       0.131100
     10 O2           2.4220    -3.8960     5.4330 os         1 6D0      -0.381600
     11 C7           2.0110    -4.2970     6.7570 c3         1 6D0       0.260800
     12 C8           3.3100    -4.1750     7.5930 c3         1 6D0       0.099100
     13 O3           3.0110    -3.9720     8.9760 oh         1 6D0      -0.555800
     14 C9           3.9720    -2.9110     6.9810 c3         1 6D0       0.082100
     15 O4           3.6870    -1.7610     7.7800 oh         1 6D0      -0.573800
     16 N3           1.5310    -5.6820     6.7510 na         1 6D0      -0.255000
     17 C10          1.7880    -6.6200     5.7970 cc         1 6D0       0.434700
     18 N4           1.2050    -7.7420     6.1080 nd         1 6D0      -0.590100
     19 C11          0.5390    -7.5950     7.2780 ca         1 6D0      -0.210200
     20 C12         -0.2490    -8.4380     8.0800 ca         1 6D0       0.786200
     21 N5          -0.4810    -9.7520     7.7110 nv         1 6D0      -0.984500
     22 C13          0.7450    -6.2720     7.7080 ca         1 6D0       0.474800
     23 N6           0.1890    -5.8700     8.8460 nb         1 6D0      -0.787000
     24 C14         -0.5440    -6.6940     9.5630 ca         1 6D0       0.737900
     25 N7          -0.7640    -7.9450     9.2020 nb         1 6D0      -0.837000
     26 C15          4.6660    -3.2610     2.1380 c3         1 6D0       0.061800
     27 C16          4.7830    -4.7590     2.2470 c          1 6D0       0.551100
     28 C17          5.6620    -5.5180     1.2870 c3         1 6D0      -0.114000
     29 O5           4.1710    -5.3520     3.1040 o          1 6D0      -0.472100
     30 Br1          5.5850    -7.4370     1.7050 br         1 6D0      -0.120400
     31 O6           1.8790    -0.0040    -1.1630 o          1 6D0      -0.773300
     32 H1           2.8200     0.6570     1.2260 hx         1 6D0       0.099700
     33 H2           0.4370    -0.2530     2.6290 hn         1 6D0       0.441133
     34 H3           1.6300     0.7200     3.1790 hn         1 6D0       0.441133
     35 H5           3.0130    -1.8020     0.7880 hc         1 6D0       0.095200
     36 H6           1.5760    -2.0580     1.7870 hc         1 6D0       0.095200
     37 H7           4.1650    -0.7620     2.7130 h1         1 6D0       0.024200
     38 H8           2.7270    -1.0180     3.7110 h1         1 6D0       0.024200
     39 H10          4.9600    -3.7450     4.5920 h1         1 6D0       0.049700
     40 H11          5.0610    -1.9790     4.6250 h1         1 6D0       0.049700
     41 H12          2.7640    -1.8550     5.5310 h1         1 6D0       0.055700
     42 H13          1.2510    -3.6250     7.1380 h2         1 6D0       0.107700
     43 H14          3.9410    -5.0440     7.4500 h1         1 6D0       0.065700
     44 H15          3.6920    -4.3550     9.5040 ho         1 6D0       0.407000
     45 H16          5.0410    -3.0550     6.8830 h1         1 6D0       0.048700
     46 H17          4.4860    -1.2890     7.9470 ho         1 6D0       0.403000
     47 H18          2.3890    -6.4570     4.9110 h5         1 6D0       0.105800
     48 H19         -0.0820   -10.1120     6.8670 hn         1 6D0       0.450300
     49 H20         -1.0470   -10.3410     8.2880 hn         1 6D0       0.450300
     50 H21         -0.9840    -6.3330    10.4850 h5         1 6D0       0.060100
     51 H22          5.6440    -2.8120     2.2660 h1         1 6D0       0.066700
     52 H23          4.2730    -2.9990     1.1630 h1         1 6D0       0.066700
     53 H24          5.3150    -5.3550     0.2740 h1         1 6D0       0.094200
     54 H25          6.6830    -5.1690     1.3800 h1         1 6D0       0.094200
     55 H131         0.5580     1.2660     2.0600 hn         1 6D0       0.441133
@<TRIPOS>BOND
     1    24    25 ar  
     2    24    23 ar  
     3    25    20 ar  
     4    23    22 ar  
     5    20    21 1   
     6    20    19 ar  
     7    22    19 ar  
     8    22    16 1   
     9    13    12 1   
    10    15    14 1   
    11    19    18 1   
    12    11    16 1   
    13    11    12 1   
    14    11    10 1   
    15    16    17 1   
    16    12    14 1   
    17    10     9 1   
    18    14     9 1   
    19     3     2 1   
    20     3     5 1   
    21     3     4 1   
    22    18    17 2   
    23     9     8 1   
    24     2     1 1   
    25     2    31 1   
    26     5     6 1   
    27     8     7 1   
    28     6     7 1   
    29     7    26 1   
    30    26    27 1   
    31    29    27 2   
    32    27    28 1   
    33    28    30 1   
    34     3    32 1   
    35     4    33 1   
    36     4    34 1   
    37     5    35 1   
    38     5    36 1   
    39     6    37 1   
    40     6    38 1   
    41     8    39 1   
    42     8    40 1   
    43     9    41 1   
    44    11    42 1   
    45    12    43 1   
    46    13    44 1   
    47    14    45 1   
    48    15    46 1   
    49    17    47 1   
    50    21    48 1   
    51    21    49 1   
    52    24    50 1   
    53    26    51 1   
    54    26    52 1   
    55    28    53 1   
    56    28    54 1   
    57    55     4 1   
@<TRIPOS>SUBSTRUCTURE
     1 6D0         1 TEMP              0 ****  ****    0 ROOT
