@<TRIPOS>MOLECULE
6D0
   55    57     1     0     0
SMALL
bcc


@<TRIPOS>ATOM
      1 O1           0.0000     0.0000     0.0000 o          1 6D0      -0.816300
      2 C1           1.2080     0.0000     0.0000 c          1 6D0       0.956600
      3 C2           1.9620     0.0000     1.3040 c3         1 6D0      -0.199500
      4 N1           1.0800     0.4740     2.3800 nz         1 6D0       0.079400
      5 C3           2.4350    -1.4200     1.6210 c3         1 6D0      -0.031400
      6 C4           3.3050    -1.4000     2.8790 c3         1 6D0       0.122800
      7 N2           3.7590    -2.7640     3.1820 n3         1 6D0      -0.490600
      8 C5           4.3950    -2.8250     4.5050 c3         1 6D0       0.131800
      9 C6           3.3190    -2.7840     5.5910 c3         1 6D0       0.162100
     10 O2           2.4220    -3.8960     5.4330 os         1 6D0      -0.367600
     11 C7           2.0110    -4.2970     6.7570 c3         1 6D0       0.151800
     12 C8           3.3100    -4.1750     7.5930 c3         1 6D0       0.133100
     13 O3           3.0110    -3.9720     8.9760 oh         1 6D0      -0.535800
     14 C9           3.9720    -2.9110     6.9810 c3         1 6D0       0.124100
     15 O4           3.6870    -1.7610     7.7800 oh         1 6D0      -0.553800
     16 N3           1.5310    -5.6820     6.7510 na         1 6D0       0.204000
     17 C10          1.7880    -6.6200     5.7970 cc         1 6D0       0.251700
     18 N4           1.2050    -7.7420     6.1080 nd         1 6D0      -0.497100
     19 C11          0.5390    -7.5950     7.2780 ca         1 6D0      -0.243200
     20 C12         -0.2490    -8.4380     8.0800 ca         1 6D0       0.590200
     21 N5          -0.4810    -9.7520     7.7110 nv         1 6D0      -0.482500
     22 C13          0.7450    -6.2720     7.7080 ca         1 6D0       0.270800
     23 N6           0.1890    -5.8700     8.8460 nb         1 6D0      -0.675000
     24 C14         -0.5440    -6.6940     9.5630 ca         1 6D0       0.686900
     25 N7          -0.7640    -7.9450     9.2020 nb         1 6D0      -0.746000
     26 C15          4.6660    -3.2610     2.1380 c3         1 6D0       0.047800
     27 C16          4.7830    -4.7590     2.2470 c          1 6D0       0.578100
     28 C17          5.6620    -5.5180     1.2870 c3         1 6D0       0.026000
     29 O5           4.1710    -5.3520     3.1040 o          1 6D0      -0.504100
     30 Br1          5.5850    -7.4370     1.7050 br         1 6D0      -0.161400
     31 O6           1.8790    -0.0040    -1.1630 o          1 6D0      -0.816300
     32 H1           2.8200     0.6570     1.2260 hx         1 6D0       0.082700
     33 H2           0.4370    -0.2530     2.6290 hn         1 6D0       0.213467
     34 H3           1.6300     0.7200     3.1790 hn         1 6D0       0.213467
     35 H5           3.0130    -1.8020     0.7880 hc         1 6D0       0.064200
     36 H6           1.5760    -2.0580     1.7870 hc         1 6D0       0.064200
     37 H7           4.1650    -0.7620     2.7130 h1         1 6D0       0.002200
     38 H8           2.7270    -1.0180     3.7110 h1         1 6D0       0.002200
     39 H10          4.9600    -3.7450     4.5920 h1         1 6D0       0.025700
     40 H11          5.0610    -1.9790     4.6250 h1         1 6D0       0.025700
     41 H12          2.7640    -1.8550     5.5310 h1         1 6D0       0.024700
     42 H13          1.2510    -3.6250     7.1380 h2         1 6D0       0.065700
     43 H14          3.9410    -5.0440     7.4500 h1         1 6D0       0.028700
     44 H15          3.6920    -4.3550     9.5040 ho         1 6D0       0.391000
     45 H16          5.0410    -3.0550     6.8830 h1         1 6D0       0.014700
     46 H17          4.4860    -1.2890     7.9470 ho         1 6D0       0.388000
     47 H18          2.3890    -6.4570     4.9110 h5         1 6D0       0.057800
     48 H19         -0.0820   -10.1120     6.8670 hn         1 6D0       0.276300
     49 H20         -1.0470   -10.3410     8.2880 hn         1 6D0       0.276300
     50 H21         -0.9840    -6.3330    10.4850 h5         1 6D0      -0.005900
     51 H22          5.6440    -2.8120     2.2660 h1         1 6D0       0.040200
     52 H23          4.2730    -2.9990     1.1630 h1         1 6D0       0.040200
     53 H24          5.3150    -5.3550     0.2740 h1         1 6D0       0.048200
     54 H25          6.6830    -5.1690     1.3800 h1         1 6D0       0.048200
     55 H131         0.5580     1.2660     2.0600 hn         1 6D0       0.213467
@<TRIPOS>BOND
     1     1     2 1   
     2     2     3 1   
     3     2    31 1   
     4     3     4 1   
     5     3     5 1   
     6     3    32 1   
     7     4    33 1   
     8     4    34 1   
     9     4    55 1   
    10     5     6 1   
    11     5    35 1   
    12     5    36 1   
    13     6     7 1   
    14     6    37 1   
    15     6    38 1   
    16     7     8 1   
    17     7    26 1   
    18     8     9 1   
    19     8    39 1   
    20     8    40 1   
    21     9    10 1   
    22     9    14 1   
    23     9    41 1   
    24    10    11 1   
    25    11    12 1   
    26    11    16 1   
    27    11    42 1   
    28    12    13 1   
    29    12    14 1   
    30    12    43 1   
    31    13    44 1   
    32    14    15 1   
    33    14    45 1   
    34    15    46 1   
    35    16    17 1   
    36    16    22 1   
    37    17    18 2   
    38    17    47 1   
    39    18    19 1   
    40    19    20 ar  
    41    19    22 ar  
    42    20    21 1   
    43    20    25 ar  
    44    21    48 1   
    45    21    49 1   
    46    22    23 ar  
    47    23    24 ar  
    48    24    25 ar  
    49    24    50 1   
    50    26    27 1   
    51    26    51 1   
    52    26    52 1   
    53    27    28 1   
    54    27    29 2   
    55    28    30 1   
    56    28    53 1   
    57    28    54 1   
@<TRIPOS>SUBSTRUCTURE
     1 6D0         1 TEMP              0 ****  ****    0 ROOT
