@<TRIPOS>MOLECULE
molecule
   53    55     1     0     0
SMALL
bcc


@<TRIPOS>ATOM
      1 N1           0.0000     0.0000     0.0000 nz         1 6D1      -0.805600
      2 C1           1.4680     0.0000     0.0000 c3         1 6D1      -0.018500
      3 C2           1.9790     0.0000     1.4430 c3         1 6D1      -0.092400
      4 C3           1.5740     1.3080     2.1260 c3         1 6D1       0.144800
      5 N2           2.0630     1.3090     3.5110 n3         1 6D1      -0.716600
      6 C4           3.5310     1.3330     3.5510 c3         1 6D1       0.144800
      7 C5           4.0100     0.9360     4.9490 c3         1 6D1       0.049000
      8 Cl1          5.8120     0.9940     5.0050 cl         1 6D1      -0.191400
      9 C6           1.4970     2.4330     4.2690 c3         1 6D1       0.153800
     10 C7           0.0410     2.1260     4.6250 c3         1 6D1       0.136100
     11 O1          -0.0220     0.9600     5.4630 os         1 6D1      -0.397600
     12 C8          -1.1200     1.1570     6.3790 c3         1 6D1       0.262800
     13 C9          -1.0070     2.6550     6.7610 c3         1 6D1       0.088100
     14 O2          -2.2740     3.1720     7.1760 oh         1 6D1      -0.556800
     15 C10         -0.5610     3.2990     5.4220 c3         1 6D1       0.081100
     16 O3          -1.6860     3.8510     4.7340 oh         1 6D1      -0.576800
     17 N3          -0.9650     0.3060     7.5610 na         1 6D1      -0.254000
     18 C11          0.2040    -0.2090     8.0360 cc         1 6D1       0.424700
     19 N4          -0.0240    -0.9190     9.1030 nd         1 6D1      -0.583100
     20 C12         -1.3500    -0.9030     9.3810 ca         1 6D1      -0.213200
     21 C13         -2.1580    -1.4730    10.3790 ca         1 6D1       0.789200
     22 N5          -1.6030    -2.2560    11.3770 nv         1 6D1      -0.982500
     23 N6          -3.4670    -1.2430    10.3430 nb         1 6D1      -0.835000
     24 C14         -4.0040    -0.4960     9.3960 ca         1 6D1       0.742900
     25 N7          -3.2860     0.0570     8.4400 nb         1 6D1      -0.788000
     26 C15         -1.9690    -0.1130     8.3970 ca         1 6D1       0.482800
     27 C16          1.9710    -1.2320    -0.7090 c          1 6D1       0.871600
     28 O4           3.2240    -1.2660    -1.1870 o          1 6D1      -0.769800
     29 O5           1.2450    -2.1870    -0.8480 o          1 6D1      -0.769800
     30 H1          -0.3340     0.8120    -0.4800 hn         1 6D1       0.440800
     31 H2          -0.3340     0.0100     0.9440 hn         1 6D1       0.440800
     32 H4           1.8290     0.8840    -0.5110 hx         1 6D1       0.100700
     33 H5           1.5470    -0.8360     1.9790 hc         1 6D1       0.097200
     34 H6           3.0580    -0.0890     1.4440 hc         1 6D1       0.097200
     35 H7           0.4940     1.3970     2.1240 h1         1 6D1       0.024200
     36 H8           2.0060     2.1440     1.5900 h1         1 6D1       0.024200
     37 H10          3.9240     0.6340     2.8220 h1         1 6D1       0.058200
     38 H11          3.8820     2.3320     3.3190 h1         1 6D1       0.058200
     39 H12          3.6040     1.6260     5.6790 h1         1 6D1       0.071700
     40 H13          3.6740    -0.0680     5.1740 h1         1 6D1       0.071700
     41 H14          2.0680     2.5800     5.1780 h1         1 6D1       0.049700
     42 H15          1.5400     3.3330     3.6670 h1         1 6D1       0.049700
     43 H16         -0.5360     1.9610     3.7230 h1         1 6D1       0.063700
     44 H17         -2.0650     0.9630     5.8840 h2         1 6D1       0.112700
     45 H18         -0.2540     2.8000     7.5260 h1         1 6D1       0.060700
     46 H19         -2.1400     3.9030     7.7570 ho         1 6D1       0.407000
     47 H20          0.1910     4.0580     5.6010 h1         1 6D1       0.049700
     48 H21         -1.5980     4.7890     4.6890 ho         1 6D1       0.409000
     49 H22          1.1780    -0.0520     7.5900 h5         1 6D1       0.085800
     50 H23         -2.1880    -2.6490    12.0880 hn         1 6D1       0.451300
     51 H24         -0.6180    -2.4310    11.3860 hn         1 6D1       0.451300
     52 H25         -5.0750    -0.3340     9.4040 h5         1 6D1       0.062100
     53 H131        -0.3340    -0.8230    -0.4610 hn         1 6D1       0.440800
@<TRIPOS>BOND
     1    22    21 1
     2    21    20 ar
     3    21    23 ar
     4    19    20 1
     5    19    18 2
     6    20    26 ar
     7    23    24 ar
     8    18    17 1
     9    26    17 1
    10    26    25 ar
    11    24    25 ar
    12    17    12 1
    13    13    14 1
    14    13    12 1
    15    13    15 1
    16    12    11 1
    17     8     7 1
    18     7     6 1
    19    11    10 1
    20     9    10 1
    21     9     5 1
    22    15    10 1
    23    15    16 1
    24     6     5 1
    25     5     4 1
    26     4     3 1
    27     3     2 1
    28     1     2 1
    29     2    27 1
    30    27    29 1
    31    27    28 1
    32     1    30 1
    33     1    31 1
    34     2    32 1
    35     3    33 1
    36     3    34 1
    37     4    35 1
    38     4    36 1
    39     6    37 1
    40     6    38 1
    41     7    39 1
    42     7    40 1
    43     9    41 1
    44     9    42 1
    45    10    43 1
    46    12    44 1
    47    13    45 1
    48    14    46 1
    49    15    47 1
    50    16    48 1
    51    18    49 1
    52    22    50 1
    53    22    51 1
    54    24    52 1
    55    53     1 1
@<TRIPOS>SUBSTRUCTURE
     1 6D1         1 TEMP              0 ****  ****    0 ROOT
