@<TRIPOS>MOLECULE
6D1
   53    55     1     0     0
SMALL
bcc


@<TRIPOS>ATOM
      1 N1           0.0000     0.0000     0.0000 nz         1 6D1       0.039400
      2 C1           1.4680     0.0000     0.0000 c3         1 6D1      -0.196500
      3 C2           1.9790     0.0000     1.4430 c3         1 6D1      -0.029400
      4 C3           1.5740     1.3080     2.1260 c3         1 6D1       0.128800
      5 N2           2.0630     1.3090     3.5110 n3         1 6D1      -0.515600
      6 C4           3.5310     1.3330     3.5510 c3         1 6D1       0.120800
      7 C5           4.0100     0.9360     4.9490 c3         1 6D1       0.070000
      8 Cl1          5.8120     0.9940     5.0050 cl         1 6D1      -0.124400
      9 C6           1.4970     2.4330     4.2690 c3         1 6D1       0.129800
     10 C7           0.0410     2.1260     4.6250 c3         1 6D1       0.167100
     11 O1          -0.0220     0.9600     5.4630 os         1 6D1      -0.383600
     12 C8          -1.1200     1.1570     6.3790 c3         1 6D1       0.154800
     13 C9          -1.0070     2.6550     6.7610 c3         1 6D1       0.124100
     14 O2          -2.2740     3.1720     7.1760 oh         1 6D1      -0.536800
     15 C10         -0.5610     3.2990     5.4220 c3         1 6D1       0.123100
     16 O3          -1.6860     3.8510     4.7340 oh         1 6D1      -0.555800
     17 N3          -0.9650     0.3060     7.5610 na         1 6D1       0.204000
     18 C11          0.2040    -0.2090     8.0360 cc         1 6D1       0.244700
     19 N4          -0.0240    -0.9190     9.1030 nd         1 6D1      -0.490100
     20 C12         -1.3500    -0.9030     9.3810 ca         1 6D1      -0.246200
     21 C13         -2.1580    -1.4730    10.3790 ca         1 6D1       0.592200
     22 N5          -1.6030    -2.2560    11.3770 nv         1 6D1      -0.478500
     23 N6          -3.4670    -1.2430    10.3430 nb         1 6D1      -0.744000
     24 C14         -4.0040    -0.4960     9.3960 ca         1 6D1       0.693900
     25 N7          -3.2860     0.0570     8.4400 nb         1 6D1      -0.677000
     26 C15         -1.9690    -0.1130     8.3970 ca         1 6D1       0.278800
     27 C16          1.9710    -1.2320    -0.7090 c          1 6D1       0.956600
     28 O4           3.2240    -1.2660    -1.1870 o          1 6D1      -0.808300
     29 O5           1.2450    -2.1870    -0.8480 o          1 6D1      -0.808300
     30 H1          -0.3340     0.8120    -0.4800 hn         1 6D1       0.218467
     31 H2          -0.3340     0.0100     0.9440 hn         1 6D1       0.218467
     32 H4           1.8290     0.8840    -0.5110 hx         1 6D1       0.083700
     33 H5           1.5470    -0.8360     1.9790 hc         1 6D1       0.065200
     34 H6           3.0580    -0.0890     1.4440 hc         1 6D1       0.065200
     35 H7           0.4940     1.3970     2.1240 h1         1 6D1       0.002200
     36 H8           2.0060     2.1440     1.5900 h1         1 6D1       0.002200
     37 H10          3.9240     0.6340     2.8220 h1         1 6D1       0.031700
     38 H11          3.8820     2.3320     3.3190 h1         1 6D1       0.031700
     39 H12          3.6040     1.6260     5.6790 h1         1 6D1       0.031200
     40 H13          3.6740    -0.0680     5.1740 h1         1 6D1       0.031200
     41 H14          2.0680     2.5800     5.1780 h1         1 6D1       0.025700
     42 H15          1.5400     3.3330     3.6670 h1         1 6D1       0.025700
     43 H16         -0.5360     1.9610     3.7230 h1         1 6D1       0.030700
     44 H17         -2.0650     0.9630     5.8840 h2         1 6D1       0.070700
     45 H18         -0.2540     2.8000     7.5260 h1         1 6D1       0.024700
     46 H19         -2.1400     3.9030     7.7570 ho         1 6D1       0.391000
     47 H20          0.1910     4.0580     5.6010 h1         1 6D1       0.015700
     48 H21         -1.5980     4.7890     4.6890 ho         1 6D1       0.394000
     49 H22          1.1780    -0.0520     7.5900 h5         1 6D1       0.038800
     50 H23         -2.1880    -2.6490    12.0880 hn         1 6D1       0.276800
     51 H24         -0.6180    -2.4310    11.3860 hn         1 6D1       0.276800
     52 H25         -5.0750    -0.3340     9.4040 h5         1 6D1      -0.004900
     53 H131        -0.3340    -0.8230    -0.4610 hn         1 6D1       0.218467
@<TRIPOS>BOND
     1     1     2 1   
     2     1    30 1   
     3     1    31 1   
     4     1    53 1   
     5     2     3 1   
     6     2    27 1   
     7     2    32 1   
     8     3     4 1   
     9     3    33 1   
    10     3    34 1   
    11     4     5 1   
    12     4    35 1   
    13     4    36 1   
    14     5     6 1   
    15     5     9 1   
    16     6     7 1   
    17     6    37 1   
    18     6    38 1   
    19     7     8 1   
    20     7    39 1   
    21     7    40 1   
    22     9    10 1   
    23     9    41 1   
    24     9    42 1   
    25    10    11 1   
    26    10    15 1   
    27    10    43 1   
    28    11    12 1   
    29    12    13 1   
    30    12    17 1   
    31    12    44 1   
    32    13    14 1   
    33    13    15 1   
    34    13    45 1   
    35    14    46 1   
    36    15    16 1   
    37    15    47 1   
    38    16    48 1   
    39    17    18 1   
    40    17    26 1   
    41    18    19 2   
    42    18    49 1   
    43    19    20 1   
    44    20    21 ar  
    45    20    26 ar  
    46    21    22 1   
    47    21    23 ar  
    48    22    50 1   
    49    22    51 1   
    50    23    24 ar  
    51    24    25 ar  
    52    24    52 1   
    53    25    26 ar  
    54    27    28 1   
    55    27    29 1   
@<TRIPOS>SUBSTRUCTURE
     1 6D1         1 TEMP              0 ****  ****    0 ROOT
