@<TRIPOS>MOLECULE
molecule
   64    66     1     0     0
SMALL
bcc


@<TRIPOS>ATOM
      1 C11          0.0000     0.0000     0.0000 c3         1 6D2      -0.096400
      2 C10          1.5300     0.0000     0.0000 c3         1 6D2       0.163800
      3 C2           4.7140    -8.0270    -3.3960 ca         1 6D2       0.708900
      4 C6           4.2950    -7.3080    -5.5490 ca         1 6D2       0.784200
      5 C5           4.0880    -6.0100    -5.0530 ca         1 6D2      -0.155200
      6 C4           4.2230    -5.7990    -3.6700 ca         1 6D2       0.439800
      7 C12         -0.5110     0.0000     1.4420 c3         1 6D2       0.226800
      8 C8           3.6980    -3.9100    -4.6790 cc         1 6D2       0.440700
      9 N6           4.1760    -7.5770    -6.9020 nv         1 6D2      -1.071500
     10 N1           4.6030    -8.2740    -4.6890 nb         1 6D2      -0.765000
     11 N3           4.5300    -6.8280    -2.8870 nb         1 6D2      -0.760000
     12 ND           2.0200     0.0010    -1.3850 n3         1 6D2      -0.714600
     13 CG           1.6710     1.2530    -2.0670 c3         1 6D2       0.137800
     14 CB           1.8210     1.0710    -3.5780 c3         1 6D2      -0.088400
     15 CA           1.4970     2.3870    -4.2860 c3         1 6D2      -0.041500
     16 C            1.7590     2.2420    -5.7630 c          1 6D2       0.864600
     17 O            0.8380     2.0630    -6.5260 o          1 6D2      -0.758800
     18 N            0.0830     2.7240    -4.0710 nz         1 6D2      -0.863600
     19 C5'          3.4680    -0.2380    -1.4300 c3         1 6D2       0.164800
     20 C4'          3.7510    -1.7190    -1.1710 c3         1 6D2       0.083100
     21 C3'          5.2730    -1.9780    -1.1340 c3         1 6D2       0.029100
     22 C2'          5.4350    -3.3570    -1.8110 c3         1 6D2      -0.018900
     23 O2'          6.0080    -4.2980    -0.9000 oh         1 6D2      -0.531800
     24 C1'          3.9920    -3.7680    -2.1770 c3         1 6D2       0.269800
     25 N9           3.9710    -4.4660    -3.4650 na         1 6D2      -0.267000
     26 N7           3.7710    -4.8160    -5.6090 nd         1 6D2      -0.561100
     27 O4'          3.2630    -2.5230    -2.2660 os         1 6D2      -0.400600
     28 O3'          5.7410    -2.0250     0.2160 oh         1 6D2      -0.525800
     29 N10         -2.0120    -0.0000     3.7610 n2         1 6D2      -0.804100
     30 N11         -4.0380     0.0080     2.6310 nz         1 6D2      -0.742600
     31 N12         -1.9760    -0.0000     1.4410 nu         1 6D2      -0.914200
     32 OXT          3.0140     2.3110    -6.2310 o          1 6D2      -0.758800
     33 H112        -0.3610    -0.8840    -0.5110 hc         1 6D2       0.060200
     34 H111        -0.3610     0.8840    -0.5110 hc         1 6D2       0.060200
     35 H102         1.8910     0.8840     0.5110 h1         1 6D2       0.048200
     36 H101         1.8910    -0.8850     0.5100 h1         1 6D2       0.048200
     37 H122        -0.1500     0.8850     1.9530 h1         1 6D2       0.063700
     38 H121        -0.1500    -0.8840     1.9530 h1         1 6D2       0.063700
     39 H61          4.9780    -7.5140    -7.4970 hn         1 6D2       0.448800
     40 H62          3.2940    -7.8630    -7.2790 hn         1 6D2       0.448800
     41 HG3          2.3320     2.0430    -1.7310 h1         1 6D2       0.019700
     42 HG2          0.6460     1.5170    -1.8350 h1         1 6D2       0.019700
     43 HB2          2.8390     0.7790    -3.8070 hc         1 6D2       0.100200
     44 HB3          1.1390     0.3010    -3.9180 hc         1 6D2       0.100200
     45 HA           2.1210     3.1770    -3.8850 hx         1 6D2       0.101700
     46 H            0.6110     3.4810    -3.6840 hn         1 6D2       0.464800
     47 H2          -0.4230     2.9510    -4.9040 hn         1 6D2       0.464800
     48 H5'1         3.9570     0.3620    -0.6710 h1         1 6D2       0.067200
     49 H5'2         3.8490     0.0370    -2.4070 h1         1 6D2       0.067200
     50 H4'1         3.2950    -2.0380    -0.2410 h1         1 6D2       0.049700
     51 H3'1         5.5760    -1.1830    -1.8040 h1         1 6D2       0.092700
     52 H2'1         6.0240    -2.6780    -2.4150 h1         1 6D2       0.126700
     53 H2'2         6.5490    -4.2370    -1.6700 ho         1 6D2       0.439000
     54 H1'1         3.5720    -4.3920    -1.3970 h2         1 6D2       0.103700
     55 H3'2         5.1800    -2.7820     0.2560 ho         1 6D2       0.412000
     56 H104        -1.0110    -0.0060     3.7630 hn         1 6D2       0.479400
     57 H113        -4.3770    -0.8160     2.1740 hn         1 6D2       0.480467
     58 H4          -4.3620     0.0210     3.5780 hn         1 6D2       0.480467
     59 H123        -2.4760    -0.0260     0.5740 hn         1 6D2       0.444800
     60 C14         -2.6640    -0.0010     2.6310 c2         1 6D2       0.669100
     61 H81          3.4550    -2.8680    -4.8440 h5         1 6D2       0.092800
     62 HN3         -0.3850     2.1480    -3.3990 hn         1 6D2       0.464800
     63 H114        -4.3770     0.8180     2.1510 hn         1 6D2       0.480467
     64 H21          4.9670    -8.8430    -2.7300 h5         1 6D2       0.067100
@<TRIPOS>BOND
     1     9     4 1
     2     4     5 ar
     3     4    10 ar
     4    26     5 1
     5    26     8 2
     6     5     6 ar
     7    10     3 ar
     8     8    25 1
     9     6    25 1
    10     6    11 ar
    11     3    11 ar
    12    25    24 1
    13    31     7 1
    14    31    60 1
    15    30    60 1
    16    24    22 1
    17    24    27 1
    18    22    23 1
    19    22    21 1
    20     7     1 1
    21    27    20 1
    22    60    29 2
    23    21    20 1
    24    21    28 1
    25    19    20 1
    26    19    12 1
    27     1     2 1
    28     2    12 1
    29    12    13 1
    30    13    14 1
    31    14    15 1
    32    18    15 1
    33    15    16 1
    34    17    16 1
    35    16    32 1
    36     1    33 1
    37     1    34 1
    38     2    35 1
    39     2    36 1
    40     3    64 1
    41     7    37 1
    42     7    38 1
    43     8    61 1
    44     9    39 1
    45     9    40 1
    46    13    41 1
    47    13    42 1
    48    14    43 1
    49    14    44 1
    50    15    45 1
    51    18    46 1
    52    18    47 1
    53    19    48 1
    54    19    49 1
    55    20    50 1
    56    21    51 1
    57    22    52 1
    58    23    53 1
    59    24    54 1
    60    28    55 1
    61    29    56 1
    62    30    57 1
    63    30    58 1
    64    31    59 1
    65    62    18 1
    66    63    30 1
@<TRIPOS>SUBSTRUCTURE
     1 6D2         1 TEMP              0 ****  ****    0 ROOT
