@<TRIPOS>MOLECULE
6D2
   64    67     1     0     0
SMALL
bcc


@<TRIPOS>ATOM
      1 C11          0.0000     0.0000     0.0000 c3         1 6D2      -0.125000
      2 C10          1.5300     0.0000     0.0000 c3         1 6D2      -0.084000
      3 C2           4.7140    -8.0270    -3.3960 c2         1 6D2      -0.016000
      4 C6           4.2950    -7.3080    -5.5490 c2         1 6D2       0.088000
      5 C5           4.0880    -6.0100    -5.0530 c2         1 6D2      -0.190000
      6 C4           4.2230    -5.7990    -3.6700 c2         1 6D2      -0.166000
      7 C12         -0.5110     0.0000     1.4420 c3         1 6D2      -0.066000
      8 C8           3.6980    -3.9100    -4.6790 c2         1 6D2      -0.187000
      9 N6           4.1760    -7.5770    -6.9020 nv         1 6D2      -0.042000
     10 N1           4.6030    -8.2740    -4.6890 n2         1 6D2      -0.127000
     11 N3           4.5300    -6.8280    -2.8870 n2         1 6D2      -0.101000
     12 ND           2.0200     0.0010    -1.3850 n3         1 6D2      -0.055000
     13 CG           1.6710     1.2530    -2.0670 c3         1 6D2      -0.110000
     14 CB           1.8210     1.0710    -3.5780 c3         1 6D2      -0.112000
     15 CA           1.4970     2.3870    -4.2860 c3         1 6D2      -0.334000
     16 C            1.7590     2.2420    -5.7630 c2         1 6D2       0.365000
     17 O            0.8380     2.0630    -6.5260 o          1 6D2      -0.533500
     18 N            0.0830     2.7240    -4.0710 nz         1 6D2       0.716000
     19 C5'          3.4680    -0.2380    -1.4300 c3         1 6D2      -0.093000
     20 C4'          3.7510    -1.7190    -1.1710 DU         1 6D2       0.167000
     21 C3'          5.2730    -1.9780    -1.1340 c3         1 6D2      -0.305000
     22 C2'          5.4350    -3.3570    -1.8110 c3         1 6D2      -0.146000
     23 O2'          6.0080    -4.2980    -0.9000 oh         1 6D2      -0.280000
     24 C1'          3.9920    -3.7680    -2.1770 c3         1 6D2       0.066000
     25 N9           3.9710    -4.4660    -3.4650 na         1 6D2       0.270000
     26 N7           3.7710    -4.8160    -5.6090 n2         1 6D2      -0.040000
     27 O4'          3.2630    -2.5230    -2.2660 os         1 6D2      -0.225000
     28 O3'          5.7410    -2.0250     0.2160 oh         1 6D2      -0.175000
     29 N10         -2.0120    -0.0000     3.7610 n2         1 6D2      -0.066000
     30 N11         -4.0380     0.0080     2.6310 nz         1 6D2       0.894000
     31 N12         -1.9760    -0.0000     1.4410 n7         1 6D2       0.096000
     32 OXT          3.0140     2.3110    -6.2310 o          1 6D2      -0.533500
     33 H112        -0.3610    -0.8840    -0.5110 hc         1 6D2       0.065000
     34 H111        -0.3610     0.8840    -0.5110 hc         1 6D2       0.065000
     35 H102         1.8910    -0.8850     0.5100 h1         1 6D2       0.061000
     36 H101         1.8910     0.8840     0.5110 h1         1 6D2       0.061000
     37 H122        -0.1500    -0.8840     1.9530 h1         1 6D2       0.085500
     38 H121        -0.1500     0.8850     1.9530 h1         1 6D2       0.085500
     39 H61          4.9790    -7.5190    -7.4960 hn         1 6D2       0.081500
     40 H62          3.2950    -7.8650    -7.2790 hn         1 6D2       0.081500
     41 HG3          0.6460     1.5170    -1.8350 h1         1 6D2       0.039500
     42 HG2          2.3320     2.0430    -1.7310 h1         1 6D2       0.039500
     43 HB2          1.1390     0.3000    -3.9180 hc         1 6D2       0.106000
     44 HB3          2.8390     0.7790    -3.8070 hc         1 6D2       0.106000
     45 HA           2.1210     3.1770    -3.8850 hx         1 6D2       0.128000
     46 H            0.6110     3.4810    -3.6840 hn         1 6D2       0.043333
     47 H2          -0.4230     2.9510    -4.9040 hn         1 6D2       0.043333
     48 H5'1         3.8490     0.0370    -2.4070 h1         1 6D2       0.093000
     49 H5'2         3.9570     0.3620    -0.6710 h1         1 6D2       0.093000
     50 H4'1         3.2950    -2.0370    -0.2410 ha         1 6D2       0.009000
     51 H3'1         4.4870    -2.2170    -0.4270 DU         1 6D2       0.184000
     52 H2'1         6.0240    -2.6780    -2.4150 h1         1 6D2       0.205000
     53 H2'2         6.5490    -4.2370    -1.6700 ho         1 6D2       0.250000
     54 H1'1         3.5720    -4.3920    -1.3970 h2         1 6D2       0.097000
     55 H3'2         5.1800    -2.7820     0.2560 ho         1 6D2       0.144000
     56 H104        -2.5120     0.0060     4.6280 hn         1 6D2       0.107000
     57 H113        -4.3660     0.9470     2.5190 hn         1 6D2       0.023000
     58 H4          -4.3430    -0.5470     1.8560 hn         1 6D2       0.023000
     59 H123        -2.4760    -0.0080     0.5740 hn         1 6D2       0.092000
     60 C14         -2.6640    -0.0010     2.6310 c2         1 6D2      -0.345000
     61 H81          3.4560    -2.8670    -4.8440 h5         1 6D2       0.176000
     62 HN3         -0.3850     2.1480    -3.3990 hn         1 6D2       0.043333
     63 H114        -4.4060    -0.3750     3.4790 hn         1 6D2       0.023000
     64 H21          4.9670    -8.8430    -2.7300 h5         1 6D2       0.139000
@<TRIPOS>BOND
     1     1     2 1   
     2     1     7 1   
     3     1    33 1   
     4     1    34 1   
     5     2    12 1   
     6     2    35 1   
     7     2    36 1   
     8     3    10 1   
     9     3    11 1   
    10     3    64 1   
    11     4     5 1   
    12     4     9 1   
    13     4    10 1   
    14     5     6 1   
    15     5    26 1   
    16     6    11 1   
    17     6    25 1   
    18     7    31 1   
    19     7    37 1   
    20     7    38 1   
    21     8    25 1   
    22     8    26 1   
    23     8    61 1   
    24     9    39 1   
    25     9    40 1   
    26    12    13 1   
    27    12    19 1   
    28    13    14 1   
    29    13    41 1   
    30    13    42 1   
    31    14    15 1   
    32    14    43 1   
    33    14    44 1   
    34    15    16 1   
    35    15    18 1   
    36    15    45 1   
    37    16    17 1   
    38    16    32 1   
    39    18    46 1   
    40    18    47 1   
    41    18    62 1   
    42    19    20 1   
    43    19    48 1   
    44    19    49 1   
    45    20    21 1   
    46    20    27 1   
    47    20    50 1   
    48    20    51 1   
    49    21    22 1   
    50    21    28 1   
    51    21    51 1   
    52    22    23 1   
    53    22    24 1   
    54    22    52 1   
    55    23    53 1   
    56    24    25 1   
    57    24    27 1   
    58    24    54 1   
    59    28    55 1   
    60    29    56 1   
    61    29    60 1   
    62    30    57 1   
    63    30    58 1   
    64    30    60 1   
    65    30    63 1   
    66    31    59 1   
    67    31    60 1   
@<TRIPOS>SUBSTRUCTURE
     1 6D2         1 TEMP              0 ****  ****    0 ROOT
