@<TRIPOS>MOLECULE
6D3
   73    76     1     0     0
SMALL
bcc


@<TRIPOS>ATOM
      1 O1           0.0000     0.0000     0.0000 o          1 6D3      -0.803800
      2 C1           1.2080     0.0000     0.0000 c          1 6D3       0.954600
      3 C2           1.9600     0.0000     1.3060 c3         1 6D3      -0.195500
      4 N1           1.0780     0.4730     2.3800 nz         1 6D3       0.035400
      5 C3           2.4320    -1.4200     1.6220 c3         1 6D3      -0.037400
      6 C4           3.3020    -1.4010     2.8800 c3         1 6D3       0.112800
      7 N2           3.8840    -2.7320     3.0950 n3         1 6D3      -0.505600
      8 C5           5.0450    -2.6610     3.9930 c3         1 6D3       0.141800
      9 C6           6.2800    -2.2360     3.1960 c3         1 6D3       0.162100
     10 O2           6.1070    -0.8970     2.7030 os         1 6D3      -0.407600
     11 C7           7.4080    -0.2720     2.7130 c3         1 6D3       0.157800
     12 C8           8.0400    -0.7740     4.0370 c3         1 6D3       0.127100
     13 O3           9.4670    -0.7470     3.9630 oh         1 6D3      -0.530800
     14 C9           7.5200    -2.2340     4.1120 c3         1 6D3       0.127100
     15 O4           8.5070    -3.1440     3.6250 oh         1 6D3      -0.542800
     16 N3           7.2790     1.1870     2.7260 na         1 6D3       0.210000
     17 C10          6.1720     1.8950     3.0860 cc         1 6D3       0.230700
     18 N4           6.4050     3.1710     2.9790 nd         1 6D3      -0.493100
     19 C11          7.6740     3.3620     2.5440 ca         1 6D3      -0.248200
     20 C12          8.4600     4.4900     2.2540 ca         1 6D3       0.593200
     21 N5           7.9470     5.7670     2.4010 nv         1 6D3      -0.479500
     22 C13          8.2520     2.0910     2.3820 ca         1 6D3       0.283800
     23 N6           9.5080     2.0020     1.9580 nb         1 6D3      -0.669000
     24 C14         10.2040     3.0870     1.6940 ca         1 6D3       0.697900
     25 N7           9.7070     4.3030     1.8360 nb         1 6D3      -0.740000
     26 O5           1.8790    -0.0050    -1.1610 o          1 6D3      -0.803800
     27 C15          2.8780    -3.6700     3.6100 c3         1 6D3       0.149800
     28 C16          2.1690    -4.3520     2.4380 c3         1 6D3      -0.071400
     29 C17          1.1980    -5.4060     2.9730 c3         1 6D3      -0.026700
     30 N8           0.5200    -6.0600     1.8500 na         1 6D3       0.589400
     31 C18          0.4800    -7.3920     1.6150 cc         1 6D3      -0.454600
     32 C19         -0.2460    -7.5530     0.4830 cd         1 6D3       0.209600
     33 N9          -0.6090    -6.3270     0.0870 nd         1 6D3      -0.289000
     34 N10         -0.1440    -5.4660     0.9210 nc         1 6D3      -0.351800
     35 C20         -0.5790    -8.8560    -0.1960 c3         1 6D3      -0.008700
     36 C21         -2.0960    -8.9700    -0.3660 c3         1 6D3      -0.202500
     37 N11         -2.7320    -9.0470     0.9560 nz         1 6D3       0.087400
     38 C22         -2.4210   -10.2120    -1.1530 c          1 6D3       0.954600
     39 O6          -2.3060   -10.2090    -2.4910 o          1 6D3      -0.819300
     40 O7          -2.7860   -11.2130    -0.5810 o          1 6D3      -0.819300
     41 H1           2.8180     0.6570     1.2280 hx         1 6D3       0.090700
     42 H2           1.4240     1.3410     2.7380 hn         1 6D3       0.216800
     43 H3           0.1540     0.6060     2.0190 hn         1 6D3       0.216800
     44 H5           1.5720    -2.0580     1.7880 hc         1 6D3       0.067200
     45 H6           3.0100    -1.8030     0.7900 hc         1 6D3       0.067200
     46 H7           2.6940    -1.1300     3.7350 h1         1 6D3       0.013700
     47 H8           4.0970    -0.6750     2.7580 h1         1 6D3       0.013700
     48 H10          4.8530    -1.9360     4.7750 h1         1 6D3       0.017700
     49 H11          5.2180    -3.6340     4.4370 h1         1 6D3       0.017700
     50 H12          6.4400    -2.9140     2.3660 h1         1 6D3       0.063700
     51 H13          7.9940    -0.6020     1.8640 h2         1 6D3       0.080700
     52 H14          7.6790    -0.1950     4.8780 h1         1 6D3       0.017700
     53 H15          9.8230    -0.5840     4.8210 ho         1 6D3       0.390000
     54 H16          7.2370    -2.4810     5.1290 h1         1 6D3       0.008700
     55 H17          8.6960    -3.7880     4.2880 ho         1 6D3       0.390000
     56 H18          5.2360     1.4610     3.4160 h5         1 6D3       0.019800
     57 H19          8.4900     6.5600     2.1240 hn         1 6D3       0.276300
     58 H20          7.0400     5.8990     2.8050 hn         1 6D3       0.276300
     59 H21         11.2260     2.9800     1.3500 h5         1 6D3      -0.001900
     60 H23          2.1520    -3.1300     4.2060 h1         1 6D3       0.008700
     61 H24          3.3630    -4.4200     4.2240 h1         1 6D3       0.008700
     62 H25          1.6200    -3.6120     1.8680 hc         1 6D3       0.058700
     63 H26          2.9030    -4.8280     1.7990 hc         1 6D3       0.058700
     64 H27          1.7470    -6.1460     3.5430 h1         1 6D3       0.034700
     65 H28          0.4630    -4.9300     3.6100 h1         1 6D3       0.034700
     66 H29          0.9360    -8.1720     2.2120 h4         1 6D3       0.164000
     67 H30         -0.1030    -8.8890    -1.1680 hc         1 6D3       0.057200
     68 H31         -0.2210    -9.6810     0.4090 hc         1 6D3       0.057200
     69 H32         -2.4660    -8.1000    -0.8950 hx         1 6D3       0.108700
     70 H33         -2.7110    -8.1450     1.3890 hn         1 6D3       0.207800
     71 H34         -3.6820    -9.3450     0.8520 hn         1 6D3       0.207800
     72 H131         1.0500    -0.2070     3.1140 hn         1 6D3       0.216800
     73 H113        -2.2400    -9.7070     1.5250 hn         1 6D3       0.207800
@<TRIPOS>BOND
     1     1     2 1   
     2     2     3 1   
     3     2    26 1   
     4     3     4 1   
     5     3     5 1   
     6     3    41 1   
     7     4    42 1   
     8     4    43 1   
     9     4    72 1   
    10     5     6 1   
    11     5    44 1   
    12     5    45 1   
    13     6     7 1   
    14     6    46 1   
    15     6    47 1   
    16     7     8 1   
    17     7    27 1   
    18     8     9 1   
    19     8    48 1   
    20     8    49 1   
    21     9    10 1   
    22     9    14 1   
    23     9    50 1   
    24    10    11 1   
    25    11    12 1   
    26    11    16 1   
    27    11    51 1   
    28    12    13 1   
    29    12    14 1   
    30    12    52 1   
    31    13    53 1   
    32    14    15 1   
    33    14    54 1   
    34    15    55 1   
    35    16    17 1   
    36    16    22 1   
    37    17    18 2   
    38    17    56 1   
    39    18    19 1   
    40    19    20 ar  
    41    19    22 ar  
    42    20    21 1   
    43    20    25 ar  
    44    21    57 1   
    45    21    58 1   
    46    22    23 ar  
    47    23    24 ar  
    48    24    25 ar  
    49    24    59 1   
    50    27    28 1   
    51    27    60 1   
    52    27    61 1   
    53    28    29 1   
    54    28    62 1   
    55    28    63 1   
    56    29    30 1   
    57    29    64 1   
    58    29    65 1   
    59    30    31 1   
    60    30    34 1   
    61    31    32 2   
    62    31    66 1   
    63    32    33 1   
    64    32    35 1   
    65    33    34 2   
    66    35    36 1   
    67    35    67 1   
    68    35    68 1   
    69    36    37 1   
    70    36    38 1   
    71    36    69 1   
    72    37    70 1   
    73    37    71 1   
    74    37    73 1   
    75    38    39 1   
    76    38    40 1   
@<TRIPOS>SUBSTRUCTURE
     1 6D3         1 TEMP              0 ****  ****    0 ROOT
