@<TRIPOS>MOLECULE
6D4
   60    63     1     0     0
SMALL
bcc


@<TRIPOS>ATOM
      1 C16          0.0000     0.0000     0.0000 DU         1 6D4      -0.139000
      2 C15          1.5300     0.0000     0.0000 c3         1 6D4      -0.116000
      3 C14          1.9900    -2.4190     5.6770 c2         1 6D4       0.370000
      4 N10         -2.4420     1.3140    -2.1030 nz         1 6D4       0.845000
      5 C11          1.8060    -1.3090     2.0200 c3         1 6D4      -0.110000
      6 C12          1.9370    -1.1670     3.5380 c3         1 6D4      -0.095000
      7 C01          3.7860     5.9670     3.5080 c2         1 6D4      -0.144000
      8 C02          3.4070     6.2040     4.8400 c2         1 6D4      -0.220000
      9 C03          3.5750     7.4980     5.3580 c2         1 6D4       0.074000
     10 N01          4.0830     8.4370     4.5650 n2         1 6D4      -0.165000
     11 C04          4.4250     8.1660     3.3180 c2         1 6D4       0.008000
     12 N02          4.2810     6.9690     2.7900 n2         1 6D4      -0.123000
     13 N03          3.5180     4.6420     3.2680 na         1 6D4       0.265000
     14 C05          3.0070     4.1150     4.4160 c2         1 6D4      -0.203000
     15 N04          2.9370     5.0330     5.3360 n2         1 6D4      -0.047000
     16 C06          3.7420     3.9270     2.0090 c3         1 6D4       0.054000
     17 C07          5.2030     3.4190     1.9230 c3         1 6D4      -0.006000
     18 C08          5.0740     2.2270     0.9430 c3         1 6D4      -0.016000
     19 C09          3.5820     1.8460     1.0060 c3         1 6D4       0.059000
     20 O01          2.9600     2.7140     1.9680 os         1 6D4      -0.288000
     21 O02          6.0630     4.4270     1.3870 oh         1 6D4      -0.250000
     22 O03          5.4330     2.6250    -0.3810 oh         1 6D4      -0.273000
     23 C10          3.4340     0.3880     1.4440 c3         1 6D4      -0.183000
     24 N06          2.0190     0.0000     1.3850 n3         1 6D4       0.002000
     25 C13          1.7400    -2.5340     4.1950 c3         1 6D4      -0.348000
     26 N07          0.3640    -2.9940     3.9660 nz         1 6D4       0.819000
     27 N08         -0.4890     0.1290    -1.3800 n7         1 6D4      -0.203000
     28 N09         -1.9420     0.1330    -1.4190 n7         1 6D4      -0.153000
     29 H23         -0.3610    -0.9280     0.4260 ha         1 6D4       0.070500
     30 H24         -0.3610     0.8330     0.5910 ha         1 6D4       0.070500
     31 H22          1.8920    -0.8840    -0.5110 h1         1 6D4       0.078000
     32 H21          1.8910     0.8850    -0.5100 h1         1 6D4       0.078000
     33 H25         -1.9840     1.4060    -2.9880 hn         1 6D4       0.027333
     34 H1          -3.4280     1.2240    -2.2460 hn         1 6D4       0.027333
     35 H14          0.8140    -1.6710     1.7750 h1         1 6D4       0.034500
     36 H13          2.5460    -2.0110     1.6570 h1         1 6D4       0.034500
     37 H15          1.1840    -0.4780     3.9030 hc         1 6D4       0.108500
     38 H16          2.9220    -0.7870     3.7810 hc         1 6D4       0.108500
     39 H02          2.7020     3.0830     4.5440 h5         1 6D4       0.172000
     40 H03          3.8830     8.2190     7.2780 hn         1 6D4       0.076500
     41 H04          2.2860     7.6140     6.9780 hn         1 6D4       0.076500
     42 H26          3.5090     4.5570     1.1590 h2         1 6D4       0.105000
     43 H05          5.5500     3.0820     2.8920 h1         1 6D4       0.077000
     44 H06          5.6880     1.3990     1.2750 h1         1 6D4       0.065000
     45 H07          3.1340     2.4920     0.2600 h1         1 6D4       0.113000
     46 H08          6.3810     4.1480     2.2290 ho         1 6D4       0.211000
     47 H09          5.9790     1.9050    -0.1120 ho         1 6D4       0.213000
     48 H10          3.1890     0.6940     0.4340 h1         1 6D4       0.098500
     49 H11          4.2150    -0.3450     1.2800 h1         1 6D4       0.098500
     50 H17          2.4350    -3.2450     3.7660 hx         1 6D4       0.127000
     51 H20          0.3750    -3.7880     3.3560 hn         1 6D4       0.009333
     52 H19         -0.0520    -3.2500     4.8390 hn         1 6D4       0.009333
     53 H3           0.0480    -0.6280    -1.0060 DU         1 6D4       0.230000
     54 H4          -2.3010     0.1110    -0.4850 hn         1 6D4       0.106000
     55 O05          3.2470    -2.4110     6.1470 o          1 6D4      -0.530000
     56 H01          4.8350     8.9610     2.7060 h5         1 6D4       0.138000
     57 H103        -2.2520     2.1260    -1.5500 hn         1 6D4       0.027333
     58 H073        -0.1710    -2.2550     3.5540 hn         1 6D4       0.009333
     59 O04          1.0580    -2.3330     6.4430 o          1 6D4      -0.530000
     60 N05          3.2190     7.7910     6.6630 nv         1 6D4       0.047000
@<TRIPOS>BOND
     1     1     2 1   
     2     1    27 1   
     3     1    29 1   
     4     1    30 1   
     5     1    53 1   
     6     2    24 1   
     7     2    31 1   
     8     2    32 1   
     9     3    25 1   
    10     3    55 1   
    11     3    59 1   
    12     4    28 1   
    13     4    33 1   
    14     4    34 1   
    15     4    57 1   
    16     5     6 1   
    17     5    24 1   
    18     5    35 1   
    19     5    36 1   
    20     6    25 1   
    21     6    37 1   
    22     6    38 1   
    23     7     8 1   
    24     7    12 1   
    25     7    13 1   
    26     8     9 1   
    27     8    15 1   
    28     9    10 1   
    29     9    60 1   
    30    10    11 1   
    31    11    12 1   
    32    11    56 1   
    33    13    14 1   
    34    13    16 1   
    35    14    15 1   
    36    14    39 1   
    37    16    17 1   
    38    16    20 1   
    39    16    42 1   
    40    17    18 1   
    41    17    21 1   
    42    17    43 1   
    43    18    19 1   
    44    18    22 1   
    45    18    44 1   
    46    19    20 1   
    47    19    23 1   
    48    19    45 1   
    49    21    46 1   
    50    22    47 1   
    51    23    24 1   
    52    23    48 1   
    53    23    49 1   
    54    25    26 1   
    55    25    50 1   
    56    26    51 1   
    57    26    52 1   
    58    26    58 1   
    59    27    28 1   
    60    27    53 1   
    61    28    54 1   
    62    40    60 1   
    63    41    60 1   
@<TRIPOS>SUBSTRUCTURE
     1 6D4         1 TEMP              0 ****  ****    0 ROOT
