@<TRIPOS>MOLECULE
molecule
   60    62     1     0     0
SMALL
bcc


@<TRIPOS>ATOM
      1 C16          0.0000     0.0000     0.0000 c3         1 6D4       0.022800
      2 C15          1.5300     0.0000     0.0000 c3         1 6D4       0.146800
      3 C14          1.9900    -2.4190     5.6770 c          1 6D4       0.867600
      4 N10         -2.4420     1.3140    -2.1030 nz         1 6D4      -0.596400
      5 C11          1.8060    -1.3090     2.0200 c3         1 6D4       0.142800
      6 C12          1.9370    -1.1670     3.5380 c3         1 6D4      -0.080400
      7 C01          3.7860     5.9670     3.5080 ca         1 6D4       0.453800
      8 C02          3.4070     6.2040     4.8400 ca         1 6D4      -0.180200
      9 C03          3.5750     7.4980     5.3580 ca         1 6D4       0.784200
     10 N01          4.0830     8.4370     4.5650 nb         1 6D4      -0.791000
     11 C04          4.4250     8.1660     3.3180 ca         1 6D4       0.725900
     12 N02          4.2810     6.9690     2.7900 nb         1 6D4      -0.771000
     13 N03          3.5180     4.6420     3.2680 na         1 6D4      -0.268000
     14 C05          3.0070     4.1150     4.4160 cc         1 6D4       0.429700
     15 N04          2.9370     5.0330     5.3360 nd         1 6D4      -0.565100
     16 C06          3.7420     3.9270     2.0090 c3         1 6D4       0.243800
     17 C07          5.2030     3.4190     1.9230 c3         1 6D4       0.062100
     18 C08          5.0740     2.2270     0.9430 c3         1 6D4       0.047100
     19 C09          3.5820     1.8460     1.0060 c3         1 6D4       0.141100
     20 O01          2.9600     2.7140     1.9680 os         1 6D4      -0.442600
     21 O02          6.0630     4.4270     1.3870 oh         1 6D4      -0.515800
     22 O03          5.4330     2.6250    -0.3810 oh         1 6D4      -0.537800
     23 C10          3.4340     0.3880     1.4440 c3         1 6D4       0.078800
     24 N06          2.0190     0.0000     1.3850 n3         1 6D4      -0.695600
     25 C13          1.7400    -2.5340     4.1950 c3         1 6D4      -0.022500
     26 N07          0.3640    -2.9940     3.9660 nz         1 6D4      -0.802600
     27 N08         -0.4890     0.1290    -1.3800 n7         1 6D4      -0.614000
     28 N09         -1.9420     0.1330    -1.4190 n7         1 6D4      -0.325800
     29 H23         -0.3610    -0.9280     0.4260 h1         1 6D4       0.064200
     30 H24         -0.3610     0.8330     0.5910 h1         1 6D4       0.064200
     31 H22          1.8920    -0.8840    -0.5110 h1         1 6D4       0.064200
     32 H21          1.8910     0.8850    -0.5100 h1         1 6D4       0.064200
     33 H25         -1.9840     1.4060    -2.9880 hn         1 6D4       0.465800
     34 H1          -3.4280     1.2240    -2.2460 hn         1 6D4       0.465800
     35 H14          0.8140    -1.6710     1.7750 h1         1 6D4       0.017200
     36 H13          2.5460    -2.0110     1.6570 h1         1 6D4       0.017200
     37 H15          1.1840    -0.4780     3.9030 hc         1 6D4       0.103700
     38 H16          2.9220    -0.7870     3.7810 hc         1 6D4       0.103700
     39 H02          2.7020     3.0830     4.5440 h5         1 6D4       0.090800
     40 H03          3.8830     8.2190     7.2780 hn         1 6D4       0.450300
     41 H04          2.2860     7.6140     6.9780 hn         1 6D4       0.450300
     42 H26          3.5090     4.5570     1.1590 h2         1 6D4       0.104700
     43 H05          5.5500     3.0820     2.8920 h1         1 6D4       0.075700
     44 H06          5.6880     1.3990     1.2750 h1         1 6D4       0.060700
     45 H07          3.1340     2.4920     0.2600 h1         1 6D4       0.094700
     46 H08          6.3810     4.1480     2.2290 ho         1 6D4       0.415000
     47 H09          5.9790     1.9050    -0.1120 ho         1 6D4       0.415000
     48 H10          3.1890     0.6940     0.4340 h1         1 6D4       0.092200
     49 H11          4.2150    -0.3450     1.2800 h1         1 6D4       0.092200
     50 H17          2.4350    -3.2450     3.7660 hx         1 6D4       0.104700
     51 H20          0.3750    -3.7880     3.3560 hn         1 6D4       0.438133
     52 H19         -0.0520    -3.2500     4.8390 hn         1 6D4       0.438133
     53 H3           0.0480    -0.6280    -1.0060 hn         1 6D4       0.493800
     54 H4          -2.3010     0.1110    -0.4850 hn         1 6D4       0.388800
     55 O05          3.2470    -2.4110     6.1470 o          1 6D4      -0.757300
     56 H01          4.8350     8.9610     2.7060 h5         1 6D4       0.068100
     57 H103        -2.2520     2.1260    -1.5500 hn         1 6D4       0.465800
     58 H073        -0.1710    -2.2550     3.5540 hn         1 6D4       0.438133
     59 O04          1.0580    -2.3330     6.4430 o          1 6D4      -0.757300
     60 N05          3.2190     7.7910     6.6630 nv         1 6D4      -1.029500
@<TRIPOS>BOND
     1    60     9 1
     2     9     8 ar
     3     9    10 ar
     4    15     8 1
     5    15    14 2
     6     8     7 ar
     7    10    11 ar
     8    14    13 1
     9     7    13 1
    10     7    12 ar
    11    11    12 ar
    12    13    16 1
    13    16    17 1
    14    16    20 1
    15    17    21 1
    16    17    18 1
    17    20    19 1
    18    27     1 1
    19    27    28 1
    20     1     2 1
    21    23    19 1
    22    23    24 1
    23    28     4 1
    24    18    19 1
    25    18    22 1
    26     2    24 1
    27    24     5 1
    28     5     6 1
    29     6    25 1
    30    26    25 1
    31    25     3 1
    32    55     3 1
    33     3    59 1
    34     1    29 1
    35     1    30 1
    36     2    31 1
    37     2    32 1
    38     4    33 1
    39     4    34 1
    40     5    35 1
    41     5    36 1
    42     6    37 1
    43     6    38 1
    44    11    56 1
    45    14    39 1
    46    60    40 1
    47    60    41 1
    48    16    42 1
    49    17    43 1
    50    18    44 1
    51    19    45 1
    52    21    46 1
    53    22    47 1
    54    23    48 1
    55    23    49 1
    56    25    50 1
    57    26    51 1
    58    26    52 1
    59    27    53 1
    60    28    54 1
    61    57     4 1
    62    58    26 1
@<TRIPOS>SUBSTRUCTURE
     1 6D4         1 TEMP              0 ****  ****    0 ROOT
