@<TRIPOS>MOLECULE
6D6
   59    61     1     0     0
SMALL
bcc


@<TRIPOS>ATOM
      1 C1           0.0000     0.0000     0.0000 c3         1 6D6      -0.051200
      2 C2           1.5300     0.0000     0.0000 c3         1 6D6      -0.040400
      3 C3           2.0400     0.0000     1.4420 c3         1 6D6       0.145800
      4 C4           4.1430     1.1110     0.9900 c3         1 6D6       0.125800
      5 C5           6.2720     2.1260     0.1660 c3         1 6D6      -0.206500
      6 C6           3.9960    -0.5220     2.7710 c3         1 6D6       0.134800
      7 C7           3.9090    -2.3040     4.5420 c3         1 6D6       0.125100
      8 C8           6.3180    -4.5050     1.5010 cc         1 6D6       0.233700
      9 C9           6.6680    -6.6240     1.8010 ca         1 6D6      -0.249200
     10 N1          -0.4900     0.0010    -1.3850 nz         1 6D6       0.088400
     11 N2           3.5040    -0.1310     1.4440 n3         1 6D6      -0.515600
     12 C10          5.5990     0.8270     0.6150 c3         1 6D6      -0.024400
     13 N3           5.6390     2.6050    -1.0690 nz         1 6D6       0.081400
     14 C11          7.7360     1.8710    -0.0860 c          1 6D6       0.951600
     15 O1           8.1360     1.7140    -1.2150 o          1 6D6      -0.801300
     16 O2           8.5950     1.8210     0.9430 o          1 6D6      -0.801300
     17 C12          3.5040    -1.9330     3.1020 c3         1 6D6       0.155100
     18 O3           4.1260    -2.8850     2.2230 os         1 6D6      -0.396600
     19 C13          4.3190    -4.0970     2.9860 c3         1 6D6       0.158800
     20 C14          4.7680    -3.5820     4.3760 c3         1 6D6       0.134100
     21 O4           4.4650    -4.5360     5.3960 oh         1 6D6      -0.532800
     22 O5           2.7510    -2.5790     5.3320 oh         1 6D6      -0.549800
     23 N4           5.3660    -4.9250     2.3800 na         1 6D6       0.194000
     24 N5           7.0810    -5.5040     1.1610 nd         1 6D6      -0.477100
     25 C15          7.0980    -7.9620     1.8280 ca         1 6D6       0.594200
     26 N6           8.1780    -8.3750     1.0680 nv         1 6D6      -0.469500
     27 N7           6.4420    -8.8220     2.6000 nb         1 6D6      -0.740000
     28 C16          5.4100    -8.4370     3.3290 ca         1 6D6       0.700900
     29 N8           4.9670    -7.1980     3.3290 nb         1 6D6      -0.685000
     30 C17          5.5650    -6.2650     2.5940 ca         1 6D6       0.278800
     31 H1          -0.3610    -0.8850     0.5100 hx         1 6D6       0.087700
     32 H2          -0.3610     0.8840     0.5110 hx         1 6D6       0.087700
     33 H3           1.8910    -0.8840    -0.5110 hc         1 6D6       0.037200
     34 H4           1.8910     0.8840    -0.5110 hc         1 6D6       0.037200
     35 H5           1.7600     0.9290     1.9240 h1         1 6D6       0.030700
     36 H6           1.6020    -0.8320     1.9790 h1         1 6D6       0.030700
     37 H7           3.6150     1.4930     0.1240 h1         1 6D6      -0.003300
     38 H8           4.1110     1.8450     1.7850 h1         1 6D6      -0.003300
     39 H9           6.1650     2.8750     0.9410 hx         1 6D6       0.088700
     40 H10          5.0790    -0.5070     2.7740 h1         1 6D6       0.037700
     41 H11          3.6240     0.1740     3.5140 h1         1 6D6       0.037700
     42 H12          4.4970    -1.5100     4.9840 h1         1 6D6       0.020700
     43 H14         -1.4910     0.0010    -1.3840 hn         1 6D6       0.224467
     44 H15         -0.1570    -0.8170    -1.8570 hn         1 6D6       0.224467
     45 H18          5.6300     0.1060    -0.1930 hc         1 6D6       0.066200
     46 H19          6.1220     0.4280     1.4750 hc         1 6D6       0.066200
     47 H20          5.4900     1.8260    -1.6800 hn         1 6D6       0.209467
     48 H21          4.7600     3.0290    -0.8490 hn         1 6D6       0.209467
     49 H24          2.4270    -1.9870     2.9980 h1         1 6D6       0.029700
     50 H25          3.3890    -4.6460     3.0670 h2         1 6D6       0.067700
     51 H26          5.8230    -3.3360     4.3710 h1         1 6D6       0.032700
     52 H27          5.1060    -4.4740     6.0850 ho         1 6D6       0.398000
     53 H28          2.7290    -1.9700     6.0510 ho         1 6D6       0.394000
     54 H29          8.4730    -9.3310     1.0950 hn         1 6D6       0.279300
     55 H30          8.6640    -7.7180     0.4900 hn         1 6D6       0.279300
     56 H31          4.9040    -9.1710     3.9440 h5         1 6D6      -0.001900
     57 H13         -0.1470     0.8120    -1.8600 hn         1 6D6       0.224467
     58 H33          6.2420     3.2670    -1.5180 hn         1 6D6       0.209467
     59 H16          6.4240    -3.4910     1.1360 h5         1 6D6       0.037800
@<TRIPOS>BOND
     1     1     2 1   
     2     1    10 1   
     3     1    31 1   
     4     1    32 1   
     5     2     3 1   
     6     2    33 1   
     7     2    34 1   
     8     3    11 1   
     9     3    35 1   
    10     3    36 1   
    11     4    11 1   
    12     4    12 1   
    13     4    37 1   
    14     4    38 1   
    15     5    12 1   
    16     5    13 1   
    17     5    14 1   
    18     5    39 1   
    19     6    11 1   
    20     6    17 1   
    21     6    40 1   
    22     6    41 1   
    23     7    17 1   
    24     7    20 1   
    25     7    22 1   
    26     7    42 1   
    27     8    23 1   
    28     8    24 2   
    29     8    59 1   
    30     9    24 1   
    31     9    25 ar  
    32     9    30 ar  
    33    10    43 1   
    34    10    44 1   
    35    10    57 1   
    36    12    45 1   
    37    12    46 1   
    38    13    47 1   
    39    13    48 1   
    40    13    58 1   
    41    14    15 1   
    42    14    16 1   
    43    17    18 1   
    44    17    49 1   
    45    18    19 1   
    46    19    20 1   
    47    19    23 1   
    48    19    50 1   
    49    20    21 1   
    50    20    51 1   
    51    21    52 1   
    52    22    53 1   
    53    23    30 1   
    54    25    26 1   
    55    25    27 ar  
    56    26    54 1   
    57    26    55 1   
    58    27    28 ar  
    59    28    29 ar  
    60    28    56 1   
    61    29    30 ar  
@<TRIPOS>SUBSTRUCTURE
     1 6D6         1 TEMP              0 ****  ****    0 ROOT
