@<TRIPOS>MOLECULE
6D7
   40    43     1     0     0
SMALL
bcc


@<TRIPOS>ATOM
      1 C11          0.0000     0.0000     0.0000 c3         1 6D7       0.330400
      2 C13          1.5460     0.0000     0.0000 c3         1 6D7      -0.043400
      3 C14          1.8680     0.0000     1.5100 c3         1 6D7      -0.028700
      4 C21         -1.7340    -0.9310    -3.2110 ca         1 6D7      -0.079000
      5 C22         -1.5220    -2.3200    -3.2610 ca         1 6D7      -0.050000
      6 C23         -2.0090    -3.0920    -4.3250 ca         1 6D7      -0.007000
      7 C10         -0.5270    -0.8280    -1.1430 ca         1 6D7      -0.099300
      8 C16          0.3100    -1.1940     3.3230 cc         1 6D7       0.264400
      9 C18         -1.3900    -1.2010     1.9960 cd         1 6D7       0.373200
     10 C19         -0.3730    -0.6280     1.3240 cc         1 6D7      -0.486900
     11 C20         -1.2420    -0.2100    -2.1670 ca         1 6D7      -0.084000
     12 C01         -2.5760    -7.4170    -6.5850 c3         1 6D7       0.088300
     13 N02         -2.0680    -6.6060    -5.4760 ns         1 6D7      -0.200900
     14 O04         -2.9120    -4.7510    -6.3610 o          1 6D7      -0.651100
     15 C05         -1.7780    -4.4570    -4.3400 ca         1 6D7      -0.164600
     16 C06         -1.0600    -5.0710    -3.2970 ca         1 6D7      -0.091000
     17 C07         -0.5800    -4.3390    -2.2580 ca         1 6D7      -0.091000
     18 C08         -0.7980    -2.9500    -2.2150 ca         1 6D7      -0.022000
     19 C09         -0.3100    -2.1730    -1.1520 ca         1 6D7      -0.082000
     20 O12         -0.5000     1.3360    -0.0810 oh         1 6D7      -0.585800
     21 N15          0.7050    -0.6180     2.1630 na         1 6D7       0.251100
     22 N17         -0.9420    -1.5390     3.2140 nd         1 6D7      -0.622000
     23 H132         1.9060     0.9190    -0.4460 hc         1 6D7       0.049700
     24 H131         1.9060    -0.9190    -0.4460 hc         1 6D7       0.049700
     25 H141         2.7580    -0.5860     1.7010 h1         1 6D7       0.031200
     26 H142         1.9970     1.0160     1.8640 h1         1 6D7       0.031200
     27 H211        -2.2880    -0.4370    -4.0000 ha         1 6D7       0.111000
     28 H231        -2.4440    -2.6070    -5.1910 ha         1 6D7       0.131000
     29 H161         0.9330    -1.3430     4.1970 h5         1 6D7       0.020100
     30 H181        -2.3920    -1.3630     1.6180 h4         1 6D7       0.006100
     31 H201        -1.4080     0.8600    -2.1320 ha         1 6D7       0.124000
     32 H013        -3.6550    -7.3330    -6.6290 h1         1 6D7       0.009367
     33 H011        -2.3000    -8.4530    -6.4310 h1         1 6D7       0.009367
     34 H012        -2.1480    -7.0640    -7.5160 h1         1 6D7       0.009367
     35 H021        -1.5430    -7.0360    -4.7400 hn         1 6D7       0.176500
     36 H061        -0.8870    -6.1400    -3.3230 ha         1 6D7       0.099000
     37 H071        -0.0290    -4.8250    -1.4630 ha         1 6D7       0.107000
     38 H091         0.3200    -2.6240    -0.3950 ha         1 6D7       0.113000
     39 H121        -1.1130     1.4850     0.6190 ho         1 6D7       0.409000
     40 C03         -2.2900    -5.2760    -5.4570 c          1 6D7       0.595700
@<TRIPOS>BOND
     1     1     2 1   
     2     1     7 1   
     3     1    10 1   
     4     1    20 1   
     5     2     3 1   
     6     2    23 1   
     7     2    24 1   
     8     3    21 1   
     9     3    25 1   
    10     3    26 1   
    11     4     5 ar  
    12     4    11 ar  
    13     4    27 1   
    14     5     6 ar  
    15     5    18 ar  
    16     6    15 ar  
    17     6    28 1   
    18     7    11 ar  
    19     7    19 ar  
    20     8    21 1   
    21     8    22 2   
    22     8    29 1   
    23     9    10 2   
    24     9    22 1   
    25     9    30 1   
    26    10    21 1   
    27    11    31 1   
    28    12    13 1   
    29    12    32 1   
    30    12    33 1   
    31    12    34 1   
    32    13    35 1   
    33    13    40 1   
    34    14    40 2   
    35    15    16 ar  
    36    15    40 1   
    37    16    17 ar  
    38    16    36 1   
    39    17    18 ar  
    40    17    37 1   
    41    18    19 ar  
    42    19    38 1   
    43    20    39 1   
@<TRIPOS>SUBSTRUCTURE
     1 6D7         1 TEMP              0 ****  ****    0 ROOT
