@<TRIPOS>MOLECULE
molecule
   40    43     1     0     0
SMALL
bcc


@<TRIPOS>ATOM
      1 C11          0.0000     0.0000     0.0000 c3         1 6D7       0.278400
      2 C13          1.5460     0.0000     0.0000 c3         1 6D7      -0.089400
      3 C14          1.8680     0.0000     1.5100 c3         1 6D7       0.037300
      4 C21         -1.7340    -0.9310    -3.2110 ca         1 6D7      -0.110000
      5 C22         -1.5220    -2.3200    -3.2610 ca         1 6D7      -0.047000
      6 C23         -2.0090    -3.0920    -4.3250 ca         1 6D7      -0.044000
      7 C10         -0.5270    -0.8280    -1.1430 ca         1 6D7      -0.084300
      8 C16          0.3100    -1.1940     3.3230 cc         1 6D7       0.430400
      9 C18         -1.3900    -1.2010     1.9960 cd         1 6D7       0.356200
     10 C19         -0.3730    -0.6280     1.3240 cc         1 6D7      -0.307900
     11 C20         -1.2420    -0.2100    -2.1670 ca         1 6D7      -0.107000
     12 C01         -2.5760    -7.4170    -6.5850 c3         1 6D7       0.104300
     13 N02         -2.0680    -6.6060    -5.4760 ns         1 6D7      -0.586900
     14 O04         -2.9120    -4.7510    -6.3610 o          1 6D7      -0.610100
     15 C05         -1.7780    -4.4570    -4.3400 ca         1 6D7      -0.150600
     16 C06         -1.0600    -5.0710    -3.2970 ca         1 6D7      -0.112000
     17 C07         -0.5800    -4.3390    -2.2580 ca         1 6D7      -0.119000
     18 C08         -0.7980    -2.9500    -2.2150 ca         1 6D7      -0.023000
     19 C09         -0.3100    -2.1730    -1.1520 ca         1 6D7      -0.108000
     20 O12         -0.5000     1.3360    -0.0810 oh         1 6D7      -0.596800
     21 N15          0.7050    -0.6180     2.1630 na         1 6D7      -0.203900
     22 N17         -0.9420    -1.5390     3.2140 nd         1 6D7      -0.694000
     23 H132         1.9060     0.9190    -0.4460 hc         1 6D7       0.081700
     24 H131         1.9060    -0.9190    -0.4460 hc         1 6D7       0.081700
     25 H141         2.7580    -0.5860     1.7010 h1         1 6D7       0.063200
     26 H142         1.9970     1.0160     1.8640 h1         1 6D7       0.063200
     27 H211        -2.2880    -0.4370    -4.0000 ha         1 6D7       0.140000
     28 H231        -2.4440    -2.6070    -5.1910 ha         1 6D7       0.161000
     29 H161         0.9330    -1.3430     4.1970 h5         1 6D7       0.066100
     30 H181        -2.3920    -1.3630     1.6180 h4         1 6D7       0.047100
     31 H201        -1.4080     0.8600    -2.1320 ha         1 6D7       0.152000
     32 H013        -3.6550    -7.3330    -6.6290 h1         1 6D7       0.042033
     33 H011        -2.3000    -8.4530    -6.4310 h1         1 6D7       0.042033
     34 H012        -2.1480    -7.0640    -7.5160 h1         1 6D7       0.042033
     35 H021        -1.5430    -7.0360    -4.7400 hn         1 6D7       0.314500
     36 H061        -0.8870    -6.1400    -3.3230 ha         1 6D7       0.123000
     37 H071        -0.0290    -4.8250    -1.4630 ha         1 6D7       0.135000
     38 H091         0.3200    -2.6240    -0.3950 ha         1 6D7       0.139000
     39 H121        -1.1130     1.4850     0.6190 ho         1 6D7       0.421000
     40 C03         -2.2900    -5.2760    -5.4570 c          1 6D7       0.672700
@<TRIPOS>BOND
     1    22     8 2   
     2    22     9 1   
     3     8    21 1   
     4     9    10 2   
     5    21    10 1   
     6    21     3 1   
     7    10     1 1   
     8     3     2 1   
     9    11     4 ar  
    10    11     7 ar  
    11     4     5 ar  
    12     1     7 1   
    13     1     2 1   
    14     1    20 1   
    15     7    19 ar  
    16     5     6 ar  
    17     5    18 ar  
    18     6    15 ar  
    19    14    40 2   
    20    19    18 ar  
    21    18    17 ar  
    22    15    40 1   
    23    15    16 ar  
    24    40    13 1   
    25    17    16 ar  
    26    13    12 1   
    27     2    23 1   
    28     2    24 1   
    29     3    25 1   
    30     3    26 1   
    31     4    27 1   
    32     6    28 1   
    33     8    29 1   
    34     9    30 1   
    35    11    31 1   
    36    12    32 1   
    37    12    33 1   
    38    12    34 1   
    39    13    35 1   
    40    16    36 1   
    41    17    37 1   
    42    19    38 1   
    43    20    39 1   
@<TRIPOS>SUBSTRUCTURE
     1 6D7         1 TEMP              0 ****  ****    0 ROOT
