@<TRIPOS>MOLECULE
molecule
   45    47     1     0     0
SMALL
bcc


@<TRIPOS>ATOM
      1 C10          0.0000     0.0000     0.0000 ca         1 6D8      -0.173000
      2 C13         -2.6820    -0.0020    -0.0910 c3         1 6D8       0.579700
      3 C21          1.3790    -0.0000     2.4380 ca         1 6D8      -0.170000
      4 C22          2.1040     0.0000     1.2340 ca         1 6D8      -0.030000
      5 C24          6.1880     1.2810    -0.5770 cc         1 6D8       0.245600
      6 C02          6.1970    -1.1920    -0.7610 c3         1 6D8      -0.058700
      7 C03          5.5760    -2.4790    -0.2150 c3         1 6D8      -0.086600
      8 C04          5.6870     0.0040     0.0450 c3         1 6D8       0.196800
      9 O05          6.1630    -0.0890     1.3900 oh         1 6D8      -0.591800
     10 C06          4.1790     0.0030     0.0450 ca         1 6D8      -0.097300
     11 C07          3.4940     0.0000    -1.1680 ca         1 6D8      -0.110000
     12 C08          2.1330     0.0000    -1.2030 ca         1 6D8      -0.116000
     13 C09          1.4060     0.0000     0.0000 ca         1 6D8      -0.024000
     14 C11         -0.6750    -0.0000     1.1850 ca         1 6D8       0.122100
     15 O12         -2.0350    -0.0010     1.1820 os         1 6D8      -0.335900
     16 F14         -2.3050     1.1400    -0.8060 f          1 6D8      -0.241300
     17 F15         -2.3040    -1.1440    -0.8060 f          1 6D8      -0.241300
     18 C16          0.0150    -0.0000     2.4070 ca         1 6D8       0.119100
     19 O17         -0.6830    -0.0000     3.5720 os         1 6D8      -0.334900
     20 C18          0.0760    -0.0010     4.7830 c3         1 6D8       0.578700
     21 F19          0.8830    -1.1420     4.8280 f          1 6D8      -0.241300
     22 F20          0.8820     1.1420     4.8280 f          1 6D8      -0.241300
     23 C23          3.5080     0.0020     1.2300 ca         1 6D8      -0.093000
     24 C25          6.0250     2.5350    -0.0950 cd         1 6D8      -0.283600
     25 N26          6.6360     3.3600    -0.9770 na         1 6D8       0.021400
     26 N27          7.1320     2.6430    -1.9230 nd         1 6D8      -0.194800
     27 N28          6.8870     1.3980    -1.7110 nc         1 6D8      -0.348000
     28 H101        -0.5420    -0.1090    -0.9320 ha         1 6D8       0.163000
     29 H131        -3.7560    -0.0030     0.0490 h3         1 6D8       0.123700
     30 H211         1.9010    -0.0000     3.3870 ha         1 6D8       0.163000
     31 H013         8.1120    -1.8910    -1.4430 hc         1 6D8       0.039533
     32 H011         7.9880    -1.7040     0.3120 hc         1 6D8       0.039533
     33 H012         8.1420    -0.2760    -0.7210 hc         1 6D8       0.039533
     34 H021         5.9380    -1.0810    -1.8060 hc         1 6D8       0.067700
     35 H033         5.6140    -2.4670     0.8680 hc         1 6D8       0.039533
     36 H031         4.5450    -2.5480    -0.5400 hc         1 6D8       0.039533
     37 H032         6.1300    -3.3330    -0.5860 hc         1 6D8       0.039533
     38 H051         6.5370     0.7360     1.6500 ho         1 6D8       0.405000
     39 H071         4.0520     0.0000    -2.0960 ha         1 6D8       0.141000
     40 H081         1.6130    -0.0020    -2.1530 ha         1 6D8       0.138000
     41 H181        -0.5980    -0.0010     5.6320 h3         1 6D8       0.123700
     42 H231         4.0520     0.1130     2.1600 ha         1 6D8       0.150000
     43 H251         5.5090     2.8210     0.8130 h4         1 6D8       0.187000
     44 H261         6.6910     4.3570    -0.9060 hn         1 6D8       0.338700
     45 C01          7.7210    -1.2720    -0.6450 c3         1 6D8      -0.086600
@<TRIPOS>BOND
     1    17     2 1
     2     2    16 1
     3     2    15 1
     4    15    14 1
     5     1    14 ar
     6     1    13 ar
     7    14    18 ar
     8    12    13 ar
     9    12    11 ar
    10    13     4 ar
    11    19    18 1
    12    19    20 1
    13    18     3 ar
    14    11    10 ar
    15     4     3 ar
    16     4    23 ar
    17    21    20 1
    18    20    22 1
    19     7     6 1
    20    10    23 ar
    21    10     8 1
    22     6     8 1
    23     6    45 1
    24     8     5 1
    25     8     9 1
    26    27     5 1
    27    27    26 2
    28     5    24 2
    29    26    25 1
    30    24    25 1
    31     1    28 1
    32     2    29 1
    33     3    30 1
    34    45    31 1
    35    45    32 1
    36    45    33 1
    37     6    34 1
    38     7    35 1
    39     7    36 1
    40     7    37 1
    41     9    38 1
    42    11    39 1
    43    12    40 1
    44    20    41 1
    45    23    42 1
    46    24    43 1
    47    25    44 1
@<TRIPOS>SUBSTRUCTURE
     1 6D8         1 TEMP              0 ****  ****    0 ROOT
