@<TRIPOS>MOLECULE
6DA
   62    68     1     0     0
SMALL
bcc


@<TRIPOS>ATOM
      1 C1           0.0000     0.0000     0.0000 c3         1 6DA       0.144800
      2 C2          -1.9400     0.0950     1.4470 c3         1 6DA       0.105800
      3 C3          -2.3970     0.0000     2.9050 c3         1 6DA       0.215900
      4 C11          6.9720     0.3310    -3.0940 ca         1 6DA      -0.041000
      5 C12          5.7110     0.2670    -2.5080 ca         1 6DA      -0.050100
      6 C13          9.6770     1.7130    -3.9820 cc         1 6DA       0.259700
      7 C14         11.3470     0.3270    -3.8740 ca         1 6DA      -0.063900
      8 C15         12.5540    -0.3860    -3.9790 ca         1 6DA       0.479200
      9 C16         11.7890    -2.0610    -2.5700 ca         1 6DA       0.246300
     10 C17         12.0050    -3.2720    -1.8950 ca         1 6DA       0.380900
     11 C18          9.8960    -3.1840    -0.9340 cp         1 6DA       0.447800
     12 C19          9.5800    -1.9960    -1.5740 ca         1 6DA      -0.269300
     13 C20         10.5460    -1.4000    -2.3940 ca         1 6DA      -0.064300
     14 C21         10.3200    -0.1830    -3.0670 ca         1 6DA      -0.285200
     15 C22          8.8870    -3.8320    -0.0610 cp         1 6DA      -0.151500
     16 C23          9.1880    -5.0270     0.5900 ca         1 6DA      -0.089000
     17 C24          8.2450    -5.6240     1.4020 ca         1 6DA      -0.106500
     18 C25          7.0030    -5.0400     1.5700 ca         1 6DA      -0.095000
     19 C26          6.6980    -3.8540     0.9260 ca         1 6DA      -0.106500
     20 C27          7.6350    -3.2430     0.1170 ca         1 6DA      -0.089000
     21 N6          11.0740    -3.7770    -1.1220 nb         1 6DA      -0.579000
     22 N5          12.7350    -1.5180    -3.3470 nb         1 6DA      -0.574000
     23 N4          10.8910     1.4910    -4.3990 nd         1 6DA      -0.486100
     24 N3           9.2800     0.7060    -3.1560 na         1 6DA       0.426600
     25 C10          8.1080     0.2410    -2.3100 ca         1 6DA      -0.170200
     26 C9           7.9880     0.0890    -0.9320 ca         1 6DA      -0.050000
     27 C8           6.7510     0.0310    -0.3430 ca         1 6DA      -0.074000
     28 C7           5.5790     0.1110    -1.1250 ca         1 6DA       0.155400
     29 N2           4.2920     0.0710    -0.7230 nc         1 6DA      -0.576100
     30 S            4.1000     0.3480    -3.2160 ss         1 6DA      -0.227100
     31 C6           3.3760     0.1630    -1.6250 cd         1 6DA       0.518100
     32 N1           2.0190     0.1380    -1.3730 nu         1 6DA      -0.407200
     33 C            1.5300     0.0000     0.0000 c3         1 6DA       0.145800
     34 N           -0.4890    -0.1380     1.3770 n3         1 6DA      -0.529600
     35 C5          -0.1480    -1.4580     1.9290 c3         1 6DA       0.105800
     36 C4          -0.6230    -1.5380     3.3820 c3         1 6DA       0.215900
     37 O           -2.0280    -1.2780     3.4330 os         1 6DA      -0.409600
     38 H1          -0.3610    -0.8290    -0.5960 h1         1 6DA       0.012700
     39 H2          -0.3610     0.9310    -0.4200 h1         1 6DA       0.012700
     40 H3          -2.4540    -0.6550     0.8580 h1         1 6DA       0.019700
     41 H4          -2.1650     1.0820     1.0620 h1         1 6DA       0.019700
     42 H5          -3.4730     0.1130     2.9540 h1         1 6DA       0.014950
     43 H6          -1.9190     0.7810     3.4840 h1         1 6DA       0.014950
     44 H7           7.0640     0.4490    -4.1670 ha         1 6DA       0.125000
     45 H8           9.0740     2.5710    -4.2520 h5         1 6DA       0.031800
     46 H9          13.3510     0.0100    -4.5960 h4         1 6DA      -0.014900
     47 H10         12.9470    -3.7940    -2.0140 h4         1 6DA      -0.006900
     48 H11          8.5490    -1.6660    -1.6230 ha         1 6DA       0.159000
     49 H12         10.1610    -5.4860     0.4600 ha         1 6DA       0.120500
     50 H13          8.4790    -6.5530     1.9090 ha         1 6DA       0.103500
     51 H14          6.2650    -5.5140     2.2060 ha         1 6DA       0.100000
     52 H15          5.7240    -3.3990     1.0630 ha         1 6DA       0.103500
     53 H16          7.3950    -2.3150    -0.3870 ha         1 6DA       0.120500
     54 H17          8.8780     0.0190    -0.3190 ha         1 6DA       0.133000
     55 H18          6.6720    -0.0870     0.7310 ha         1 6DA       0.129000
     56 H19          1.3690     0.2200    -2.1300 hn         1 6DA       0.299800
     57 H20          1.8910    -0.9310     0.4200 h1         1 6DA       0.039700
     58 H21          1.8910     0.8290     0.5970 h1         1 6DA       0.039700
     59 H23          0.9260    -1.5960     1.8920 h1         1 6DA       0.019700
     60 H24         -0.6370    -2.2290     1.3460 h1         1 6DA       0.019700
     61 H25         -0.4250    -2.5290     3.7720 h1         1 6DA       0.014950
     62 H26         -0.0970    -0.7980     3.9740 h1         1 6DA       0.014950
@<TRIPOS>BOND
     1     1    33 1   
     2     1    34 1   
     3     1    38 1   
     4     1    39 1   
     5     2     3 1   
     6     2    34 1   
     7     2    40 1   
     8     2    41 1   
     9     3    37 1   
    10     3    42 1   
    11     3    43 1   
    12     4     5 ar  
    13     4    25 ar  
    14     4    44 1   
    15     5    28 ar  
    16     5    30 1   
    17     6    23 2   
    18     6    24 1   
    19     6    45 1   
    20     7     8 ar  
    21     7    14 ar  
    22     7    23 1   
    23     8    22 ar  
    24     8    46 1   
    25     9    10 ar  
    26     9    13 ar  
    27     9    22 ar  
    28    10    21 ar  
    29    10    47 1   
    30    11    12 ar  
    31    11    15 1   
    32    11    21 ar  
    33    12    13 ar  
    34    12    48 1   
    35    13    14 ar  
    36    14    24 1   
    37    15    16 ar  
    38    15    20 ar  
    39    16    17 ar  
    40    16    49 1   
    41    17    18 ar  
    42    17    50 1   
    43    18    19 ar  
    44    18    51 1   
    45    19    20 ar  
    46    19    52 1   
    47    20    53 1   
    48    24    25 1   
    49    25    26 ar  
    50    26    27 ar  
    51    26    54 1   
    52    27    28 ar  
    53    27    55 1   
    54    28    29 1   
    55    29    31 2   
    56    30    31 1   
    57    31    32 1   
    58    32    33 1   
    59    32    56 1   
    60    33    57 1   
    61    33    58 1   
    62    34    35 1   
    63    35    36 1   
    64    35    59 1   
    65    35    60 1   
    66    36    37 1   
    67    36    61 1   
    68    36    62 1   
@<TRIPOS>SUBSTRUCTURE
     1 6DA         1 TEMP              0 ****  ****    0 ROOT
