@<TRIPOS>MOLECULE
molecule
   62    68     1     0     0
SMALL
bcc


@<TRIPOS>ATOM
      1 C1           0.0000     0.0000     0.0000 c3         1 6DA       0.143800
      2 C2          -1.9400     0.0950     1.4470 c3         1 6DA       0.120800
      3 C3          -2.3970     0.0000     2.9050 c3         1 6DA       0.140400
      4 C11          6.9720     0.3310    -3.0940 ca         1 6DA      -0.077000
      5 C12          5.7110     0.2670    -2.5080 ca         1 6DA      -0.077100
      6 C13          9.6770     1.7130    -3.9820 cc         1 6DA       0.450700
      7 C14         11.3470     0.3270    -3.8740 ca         1 6DA      -0.040900
      8 C15         12.5540    -0.3860    -3.9790 ca         1 6DA       0.497200
      9 C16         11.7890    -2.0610    -2.5700 ca         1 6DA       0.289300
     10 C17         12.0050    -3.2720    -1.8950 ca         1 6DA       0.404900
     11 C18          9.8960    -3.1840    -0.9340 cp         1 6DA       0.478800
     12 C19          9.5800    -1.9960    -1.5740 ca         1 6DA      -0.255300
     13 C20         10.5460    -1.4000    -2.3940 ca         1 6DA      -0.093300
     14 C21         10.3200    -0.1830    -3.0670 ca         1 6DA      -0.110200
     15 C22          8.8870    -3.8320    -0.0610 cp         1 6DA      -0.146500
     16 C23          9.1880    -5.0270     0.5900 ca         1 6DA      -0.104500
     17 C24          8.2450    -5.6240     1.4020 ca         1 6DA      -0.135500
     18 C25          7.0030    -5.0400     1.5700 ca         1 6DA      -0.120000
     19 C26          6.6980    -3.8540     0.9260 ca         1 6DA      -0.135500
     20 C27          7.6350    -3.2430     0.1170 ca         1 6DA      -0.104500
     21 N6          11.0740    -3.7770    -1.1220 nb         1 6DA      -0.690000
     22 N5          12.7350    -1.5180    -3.3470 nb         1 6DA      -0.684000
     23 N4          10.8910     1.4910    -4.3990 nd         1 6DA      -0.576100
     24 N3           9.2800     0.7060    -3.1560 na         1 6DA      -0.071400
     25 C10          8.1080     0.2410    -2.3100 ca         1 6DA      -0.014200
     26 C9           7.9880     0.0890    -0.9320 ca         1 6DA      -0.092000
     27 C8           6.7510     0.0310    -0.3430 ca         1 6DA      -0.096000
     28 C7           5.5790     0.1110    -1.1250 ca         1 6DA       0.184400
     29 N2           4.2920     0.0710    -0.7230 nc         1 6DA      -0.677100
     30 S            4.1000     0.3480    -3.2160 ss         1 6DA      -0.150100
     31 C6           3.3760     0.1630    -1.6250 cd         1 6DA       0.686100
     32 N1           2.0190     0.1380    -1.3730 nu         1 6DA      -0.849200
     33 C            1.5300     0.0000     0.0000 c3         1 6DA       0.237800
     34 N           -0.4890    -0.1380     1.3770 n3         1 6DA      -0.723600
     35 C5          -0.1480    -1.4580     1.9290 c3         1 6DA       0.120800
     36 C4          -0.6230    -1.5380     3.3820 c3         1 6DA       0.140400
     37 O           -2.0280    -1.2780     3.4330 os         1 6DA      -0.422600
     38 H1          -0.3610    -0.8290    -0.5960 h1         1 6DA       0.039200
     39 H2          -0.3610     0.9310    -0.4200 h1         1 6DA       0.039200
     40 H3          -2.4540    -0.6550     0.8580 h1         1 6DA       0.045200
     41 H4          -2.1650     1.0820     1.0620 h1         1 6DA       0.045200
     42 H5          -3.4730     0.1130     2.9540 h1         1 6DA       0.056450
     43 H6          -1.9190     0.7810     3.4840 h1         1 6DA       0.056450
     44 H7           7.0640     0.4490    -4.1670 ha         1 6DA       0.152000
     45 H8           9.0740     2.5710    -4.2520 h5         1 6DA       0.082800
     46 H9          13.3510     0.0100    -4.5960 h4         1 6DA       0.037100
     47 H10         12.9470    -3.7940    -2.0140 h4         1 6DA       0.043100
     48 H11          8.5490    -1.6660    -1.6230 ha         1 6DA       0.162000
     49 H12         10.1610    -5.4860     0.4600 ha         1 6DA       0.144000
     50 H13          8.4790    -6.5530     1.9090 ha         1 6DA       0.131500
     51 H14          6.2650    -5.5140     2.2060 ha         1 6DA       0.128000
     52 H15          5.7240    -3.3990     1.0630 ha         1 6DA       0.131500
     53 H16          7.3950    -2.3150    -0.3870 ha         1 6DA       0.144000
     54 H17          8.8780     0.0190    -0.3190 ha         1 6DA       0.163000
     55 H18          6.6720    -0.0870     0.7310 ha         1 6DA       0.163000
     56 H19          1.3690     0.2200    -2.1300 hn         1 6DA       0.454800
     57 H20          1.8910    -0.9310     0.4200 h1         1 6DA       0.065200
     58 H21          1.8910     0.8290     0.5970 h1         1 6DA       0.065200
     59 H23          0.9260    -1.5960     1.8920 h1         1 6DA       0.045200
     60 H24         -0.6370    -2.2290     1.3460 h1         1 6DA       0.045200
     61 H25         -0.4250    -2.5290     3.7720 h1         1 6DA       0.056450
     62 H26         -0.0970    -0.7980     3.9740 h1         1 6DA       0.056450
@<TRIPOS>BOND
     1    37     3 1
     2    37    36 1
     3     3     2 1
     4    36    35 1
     5    19    18 ar
     6    19    20 ar
     7    18    17 ar
     8     2    34 1
     9    20    15 ar
    10    35    34 1
    11    34     1 1
    12    17    16 ar
    13    15    16 ar
    14    15    11 1
    15     1    33 1
    16    21    11 ar
    17    21    10 ar
    18    11    12 ar
    19    33    32 1
    20    10     9 ar
    21    32    31 1
    22    12    13 ar
    23    29    31 2
    24    29    28 1
    25    31    30 1
    26     9    13 ar
    27     9    22 ar
    28    28    27 ar
    29    28     5 ar
    30    13    14 ar
    31    30     5 1
    32    27    26 ar
    33     5     4 ar
    34    26    25 ar
    35    22     8 ar
    36     4    25 ar
    37    25    24 1
    38    14    24 1
    39    14     7 ar
    40    24     6 1
    41     8     7 ar
    42     7    23 1
    43     6    23 2
    44     1    38 1
    45     1    39 1
    46     2    40 1
    47     2    41 1
    48     3    42 1
    49     3    43 1
    50     4    44 1
    51     6    45 1
    52     8    46 1
    53    10    47 1
    54    12    48 1
    55    16    49 1
    56    17    50 1
    57    18    51 1
    58    19    52 1
    59    20    53 1
    60    26    54 1
    61    27    55 1
    62    32    56 1
    63    33    57 1
    64    33    58 1
    65    35    59 1
    66    35    60 1
    67    36    61 1
    68    36    62 1
@<TRIPOS>SUBSTRUCTURE
     1 6DA         1 TEMP              0 ****  ****    0 ROOT
