@<TRIPOS>MOLECULE
6DB
   34    33     1     0     0
SMALL
bcc


@<TRIPOS>ATOM
      1 O            0.0000     0.0000     0.0000 o          1 6DB      -0.907800
      2 C            1.2090     0.0000     0.0000 c          1 6DB       0.992600
      3 CA           1.9620     0.0000     1.3050 c3         1 6DB       0.016500
      4 CB           2.8410     1.2490     1.3860 c3         1 6DB       0.018900
      5 N            1.0070     0.0010     2.4220 n7         1 6DB      -0.622200
      6 CAI          1.6100    -0.5780     3.6290 c3         1 6DB      -0.000500
      7 CAE          1.4670    -2.0780     3.5930 c          1 6DB       0.955600
      8 OAB          1.9490    -2.8230     4.6000 o          1 6DB      -0.882800
      9 OAF          0.9200    -2.6100     2.6560 o          1 6DB      -0.882800
     10 CAK          0.8990    -0.0290     4.8680 c3         1 6DB       0.009600
     11 CAL          1.1480     1.4770     4.9730 c3         1 6DB      -0.045400
     12 CAM          0.4370     2.0260     6.2120 c3         1 6DB       0.144800
     13 NAN          0.6760     3.4680     6.3120 nu         1 6DB      -0.453200
     14 CAP          0.1320     4.1840     7.3530 c2         1 6DB       0.240100
     15 NAO         -0.5950     3.5800     8.2500 n2         1 6DB      -0.695100
     16 NAQ          0.3570     5.5370     7.4470 nz         1 6DB       0.184400
     17 OXT          1.8800    -0.0060    -1.1620 o          1 6DB      -0.907800
     18 H1           2.5850    -0.8850     1.3630 h1         1 6DB       0.036700
     19 H2           3.4920     1.1780     2.2490 hc         1 6DB      -0.018633
     20 H3           3.4410     1.3270     0.4870 hc         1 6DB      -0.018633
     21 H4           2.2140     2.1270     1.4780 hc         1 6DB      -0.018633
     22 H5           0.1960    -0.5270     2.1680 hn         1 6DB       0.318800
     23 H7           2.6600    -0.3160     3.6700 h1         1 6DB       0.026700
     24 H9          -0.1650    -0.2140     4.7850 hc         1 6DB       0.018700
     25 H10          1.2830    -0.5220     5.7530 hc         1 6DB       0.018700
     26 H11          2.2120     1.6620     5.0560 hc         1 6DB       0.033200
     27 H12          0.7640     1.9690     4.0880 hc         1 6DB       0.033200
     28 H13         -0.6270     1.8410     6.1300 h1         1 6DB       0.030700
     29 H14          0.8220     1.5340     7.0970 h1         1 6DB       0.030700
     30 H15          1.2350     3.9320     5.6240 hn         1 6DB       0.306800
     31 H16         -0.7590     2.5950     8.1820 hn         1 6DB       0.394400
     32 H18         -0.1110     5.8980     8.2550 hn         1 6DB       0.214133
     33 H19          1.3400     5.7080     7.5280 hn         1 6DB       0.214133
     34 HAQ3         0.0060     5.9920     6.6270 hn         1 6DB       0.214133
@<TRIPOS>BOND
     1     1     2 1   
     2     2     3 1   
     3     2    17 1   
     4     3     4 1   
     5     3     5 1   
     6     3    18 1   
     7     4    19 1   
     8     4    20 1   
     9     4    21 1   
    10     5     6 1   
    11     5    22 1   
    12     6     7 1   
    13     6    10 1   
    14     6    23 1   
    15     7     8 1   
    16     7     9 1   
    17    10    11 1   
    18    10    24 1   
    19    10    25 1   
    20    11    12 1   
    21    11    26 1   
    22    11    27 1   
    23    12    13 1   
    24    12    28 1   
    25    12    29 1   
    26    13    14 1   
    27    13    30 1   
    28    14    15 2   
    29    14    16 1   
    30    15    31 1   
    31    16    32 1   
    32    16    33 1   
    33    16    34 1   
@<TRIPOS>SUBSTRUCTURE
     1 6DB         1 TEMP              0 ****  ****    0 ROOT
