@<TRIPOS>MOLECULE
molecule
   34    33     1     0     0
SMALL
bcc


@<TRIPOS>ATOM
      1 O            0.0000     0.0000     0.0000 o          1 6DB      -0.860300
      2 C            1.2090     0.0000     0.0000 c          1 6DB       0.902600
      3 CA           1.9620     0.0000     1.3050 c3         1 6DB       0.066500
      4 CB           2.8410     1.2490     1.3860 c3         1 6DB      -0.064100
      5 N            1.0070     0.0010     2.4220 n7         1 6DB      -0.831200
      6 CAI          1.6100    -0.5780     3.6290 c3         1 6DB       0.054500
      7 CAE          1.4670    -2.0780     3.5930 c          1 6DB       0.865600
      8 OAB          1.9490    -2.8230     4.6000 o          1 6DB      -0.835300
      9 OAF          0.9200    -2.6100     2.6560 o          1 6DB      -0.835300
     10 CAK          0.8990    -0.0290     4.8680 c3         1 6DB      -0.039400
     11 CAL          1.1480     1.4770     4.9730 c3         1 6DB      -0.100400
     12 CAM          0.4370     2.0260     6.2120 c3         1 6DB       0.222800
     13 NAN          0.6760     3.4680     6.3120 nu         1 6DB      -0.821200
     14 CAP          0.1320     4.1840     7.3530 c2         1 6DB       0.674100
     15 NAO         -0.5950     3.5800     8.2500 n2         1 6DB      -0.811100
     16 NAQ          0.3570     5.5370     7.4470 nz         1 6DB      -0.809600
     17 OXT          1.8800    -0.0060    -1.1620 o          1 6DB      -0.860300
     18 H1           2.5850    -0.8850     1.3630 h1         1 6DB       0.048700
     19 H2           2.2140     2.1270     1.4830 hc         1 6DB       0.008367
     20 H3           3.4950     1.1760     2.2470 hc         1 6DB       0.008367
     21 H4           3.4380     1.3300     0.4850 hc         1 6DB       0.008367
     22 H5           0.1960    -0.5270     2.1680 hn         1 6DB       0.400800
     23 H7           2.6600    -0.3160     3.6700 h1         1 6DB       0.043700
     24 H9           1.2830    -0.5220     5.7530 hc         1 6DB       0.046200
     25 H10         -0.1650    -0.2140     4.7850 hc         1 6DB       0.046200
     26 H11          2.2120     1.6620     5.0560 hc         1 6DB       0.057700
     27 H12          0.7640     1.9690     4.0880 hc         1 6DB       0.057700
     28 H13         -0.6270     1.8410     6.1300 h1         1 6DB       0.069200
     29 H14          0.8220     1.5340     7.0970 h1         1 6DB       0.069200
     30 H15          1.2530     3.9280     5.6370 hn         1 6DB       0.452800
     31 H16         -0.9910     4.1000     9.0080 hn         1 6DB       0.413400
     32 H18          0.8540     5.7350     8.2930 hn         1 6DB       0.450467
     33 H19          0.8990     5.8410     6.6620 hn         1 6DB       0.450467
     34 HAQ3        -0.5190     6.0210     7.4550 hn         1 6DB       0.450467
@<TRIPOS>BOND
     1     1     2 1
     2     4     3 1
     3     2    17 1
     4     2     3 1
     5     3     5 1
     6     5     6 1
     7     8     7 1
     8     6     7 1
     9     6    10 1
    10     7     9 1
    11    10    11 1
    12    11    12 1
    13    12    13 1
    14    13    14 1
    15    14    15 2
    16    14    16 1
    17     3    18 1
    18     4    19 1
    19     4    20 1
    20     4    21 1
    21     5    22 1
    22     6    23 1
    23    10    24 1
    24    10    25 1
    25    11    26 1
    26    11    27 1
    27    12    28 1
    28    12    29 1
    29    13    30 1
    30    15    31 1
    31    16    32 1
    32    16    33 1
    33    34    16 1
@<TRIPOS>SUBSTRUCTURE
     1 6DB         1 TEMP              0 ****  ****    0 ROOT
