@<TRIPOS>MOLECULE
molecule
   47    49     1     0     0
SMALL
bcc


@<TRIPOS>ATOM
      1 CAA          0.0000     0.0000     0.0000 c3         1 6DC      -0.082100
      2 CAO          1.5300     0.0000     0.0000 c3         1 6DC      -0.084400
      3 CAP          2.0400     0.0000     1.4430 c3         1 6DC      -0.095600
      4 SBB          3.8540    -0.0000     1.4430 s6         1 6DC       1.299900
      5 OAE          4.3520    -1.2380     0.9530 o          1 6DC      -0.618300
      6 OAF          4.3530     1.2360     0.9530 o          1 6DC      -0.618300
      7 NAS          4.2670    -0.0000     3.0470 nu         1 6DC      -0.596500
      8 CAW          3.8540    -1.0420     3.8710 ca         1 6DC       0.128600
      9 CAU          3.5040    -0.7860     5.2070 ca         1 6DC       0.006000
     10 CAG          3.5690     0.5450     5.7290 cg         1 6DC       0.255800
     11 NAC          3.6390     1.5990     6.1460 n1         1 6DC      -0.348800
     12 CAJ          3.7810    -2.3360     3.3750 ca         1 6DC      -0.204000
     13 CAH          3.3720    -3.3720     4.1920 ca         1 6DC      -0.083000
     14 CAI          3.0300    -3.1350     5.5110 ca         1 6DC      -0.188000
     15 CAV          3.0900    -1.8490     6.0270 ca         1 6DC       0.142600
     16 NAR          2.7400    -1.6130     7.3530 nu         1 6DC      -0.553000
     17 CAT          2.4830    -2.6860     8.2100 ca         1 6DC       0.070600
     18 CAN          3.3020    -3.8020     8.1810 ca         1 6DC      -0.090000
     19 CAZ          3.0370    -4.8660     9.0400 ca         1 6DC      -0.191600
     20 CAX          3.8700    -6.0770     9.0590 c          1 6DC       0.702100
     21 OAD          4.8300    -6.1960     8.3190 o          1 6DC      -0.621500
     22 NBA          3.5290    -7.0550     9.9300 n          1 6DC      -0.399300
     23 CAB          4.3250    -8.2830     9.9910 c3         1 6DC       0.068300
     24 CAM          2.4550    -6.9060    10.7510 cc         1 6DC       0.500800
     25 NAQ          1.7020    -5.8490    10.7570 nd         1 6DC      -0.639100
     26 CAY          1.9400    -4.8000     9.9280 ca         1 6DC       0.187400
     27 CAL          1.1290    -3.6630     9.9360 ca         1 6DC      -0.089000
     28 CAK          1.4040    -2.6250     9.0930 ca         1 6DC      -0.145000
     29 H1          -0.5240     0.0030     0.9480 hc         1 6DC       0.057700
     30 H2          -0.1170     0.8630    -0.6440 hc         1 6DC       0.057700
     31 H3          -0.0400    -0.9160    -0.5780 hc         1 6DC       0.057700
     32 H4           2.1480     0.8240    -0.3360 hc         1 6DC       0.059700
     33 H5           1.9300    -0.9400    -0.3600 hc         1 6DC       0.059700
     34 H6           2.7740     0.7430     1.7310 h1         1 6DC      -0.012300
     35 H7           1.0710     0.2390     1.8650 h1         1 6DC      -0.012300
     36 H8           5.1090    -0.5270     2.9250 hn         1 6DC       0.401800
     37 H9           3.7550    -2.7890     2.3910 ha         1 6DC       0.195000
     38 H10          3.5380    -4.4260     4.0040 ha         1 6DC       0.152000
     39 H11          2.4500    -3.8230     6.1140 ha         1 6DC       0.152000
     40 H12          1.8660    -1.1440     7.4920 hn         1 6DC       0.393800
     41 H13          4.0530    -4.0800     7.4510 ha         1 6DC       0.175000
     42 H14          5.2510    -7.7220    10.0130 h1         1 6DC       0.067033
     43 H15          4.2240    -8.9320     9.1300 h1         1 6DC       0.067033
     44 H16          4.2900    -8.6930    10.9940 h1         1 6DC       0.067033
     45 H17          2.2550    -7.7820    11.3560 h5         1 6DC       0.054800
     46 H18          0.2770    -3.3830    10.5440 ha         1 6DC       0.154000
     47 H19          0.6680    -1.8390     8.9800 ha         1 6DC       0.137000
@<TRIPOS>BOND
     1     5     4 2
     2    21    20 2
     3    11    10 3
     4    10     9 1
     5    16    15 1
     6    16    17 1
     7     7     8 1
     8     7     4 1
     9     9     8 ar
    10     9    15 ar
    11     6     4 2
    12     8    12 ar
    13    15    14 ar
    14    12    13 ar
    15    14    13 ar
    16     4     3 1
    17    18    17 ar
    18    18    19 ar
    19    17    28 ar
    20    20    19 1
    21    20    22 1
    22    19    26 ar
    23    23    22 1
    24    22    24 1
    25     3     2 1
    26    28    27 ar
    27    26    27 ar
    28    26    25 1
    29    24    25 2
    30     2     1 1
    31     1    29 1
    32     1    30 1
    33     1    31 1
    34     2    32 1
    35     2    33 1
    36     3    34 1
    37     3    35 1
    38     7    36 1
    39    12    37 1
    40    13    38 1
    41    14    39 1
    42    16    40 1
    43    18    41 1
    44    23    42 1
    45    23    43 1
    46    23    44 1
    47    24    45 1
    48    27    46 1
    49    28    47 1
@<TRIPOS>SUBSTRUCTURE
     1 6DC         1 TEMP              0 ****  ****    0 ROOT
