@<TRIPOS>MOLECULE
molecule
   53    55     1     0     0
SMALL
bcc


@<TRIPOS>ATOM
      1 C5           0.0000     0.0000     0.0000 ca         1 6DD      -0.053000
      2 C4A          1.4000     0.0000     0.0000 ca         1 6DD      -0.300600
      3 C4           2.1500     0.0000     1.2000 ca         1 6DD       0.724600
      4 O4           1.5330    -0.0010     2.4040 oh         1 6DD      -0.587300
      5 N3           3.4700    -0.0000     1.1150 nb         1 6DD      -0.851000
      6 C2           4.0910    -0.0000    -0.0620 ca         1 6DD       0.962900
      7 NA2          5.4740     0.0000    -0.0830 nv         1 6DD      -1.061500
      8 N1           3.4410    -0.0010    -1.2110 nb         1 6DD      -0.771000
      9 C8A          2.1000    -0.0000    -1.2310 ca         1 6DD       0.476600
     10 C8           1.3770     0.0010    -2.4330 ca         1 6DD      -0.202300
     11 C7           0.0150     0.0010    -2.3980 ca         1 6DD      -0.069000
     12 C6          -0.6720    -0.0010    -1.1870 ca         1 6DD      -0.131300
     13 C9          -2.1790    -0.0070    -1.1870 c3         1 6DD       0.146300
     14 N10         -2.6740     1.3720    -1.1840 n          1 6DD      -0.372000
     15 CA1         -2.9010     2.0090    -2.3500 c          1 6DD       0.664900
     16 OA1         -2.6960     1.4400    -3.4020 o          1 6DD      -0.636100
     17 C14         -2.9100     2.0250     0.0250 ca         1 6DD       0.047600
     18 C15         -2.6690     1.3690     1.2270 ca         1 6DD      -0.195500
     19 C16         -2.9000     2.0110     2.4230 ca         1 6DD      -0.058000
     20 C13         -3.3780     3.3350     0.0250 ca         1 6DD      -0.195500
     21 C12         -3.6120     3.9840     1.2170 ca         1 6DD      -0.058000
     22 C11         -3.3770     3.3250     2.4270 ca         1 6DD      -0.121600
     23 C           -3.6260     4.0170     3.7070 c          1 6DD       0.659700
     24 O           -3.4180     3.4440     4.7590 o          1 6DD      -0.634100
     25 N           -4.0860     5.2840     3.7090 ns         1 6DD      -0.510900
     26 CA          -4.3340     5.9710     4.9790 c3         1 6DD      -0.004300
     27 CT          -5.7130     5.6220     5.4780 c          1 6DD       0.892600
     28 O2          -6.4160     4.8770     4.8380 o          1 6DD      -0.858300
     29 O1          -6.1590     6.1400     6.6340 o          1 6DD      -0.858300
     30 CB          -4.2340     7.4830     4.7690 c3         1 6DD      -0.059400
     31 CG          -2.8000     7.8510     4.3830 c3         1 6DD      -0.187400
     32 CD          -2.7030     9.3400     4.1760 c          1 6DD       0.890600
     33 OE2         -3.6790    10.0360     4.3220 o          1 6DD      -0.872800
     34 OE1         -1.5290     9.8940     3.8300 o          1 6DD      -0.872800
     35 H1          -0.5450    -0.0010     0.9360 ha         1 6DD       0.161000
     36 H3           5.9750     0.8620     0.0090 hn         1 6DD       0.439800
     37 H4           5.9730    -0.8590    -0.2000 hn         1 6DD       0.439800
     38 H5           1.8980     0.0020    -3.3820 ha         1 6DD       0.147000
     39 H6          -0.5420     0.0010    -3.3270 ha         1 6DD       0.153000
     40 H7          -2.5380    -0.5170    -2.0730 h1         1 6DD       0.068200
     41 H8          -2.5390    -0.5220    -0.3050 h1         1 6DD       0.068200
     42 H9          -3.2890     3.0210    -2.3480 h5         1 6DD       0.047200
     43 H10         -2.2990     0.3500     1.2230 ha         1 6DD       0.120500
     44 H11         -2.7150     1.4980     3.3590 ha         1 6DD       0.157000
     45 H12         -3.5600     3.8460    -0.9130 ha         1 6DD       0.120500
     46 H13         -3.9790     5.0030     1.2170 ha         1 6DD       0.157000
     47 H14         -4.2970     5.7410     2.8440 hn         1 6DD       0.299500
     48 H15         -3.5960     5.6580     5.7080 h1         1 6DD       0.069700
     49 H17         -4.5040     7.9930     5.6860 hc         1 6DD       0.061200
     50 H18         -4.9100     7.7820     3.9770 hc         1 6DD       0.061200
     51 H19         -2.1240     7.5510     5.1750 hc         1 6DD       0.021700
     52 H20         -2.5300     7.3410     3.4660 hc         1 6DD       0.021700
     53 H2           2.1060    -0.3770     3.0510 ho         1 6DD       0.444000
@<TRIPOS>BOND
     1    31    30 1   
     2    31    32 1   
     3    30    26 1   
     4    24    23 2   
     5    32    33 1   
     6    32    34 1   
     7    23    22 1   
     8    23    25 1   
     9    19    18 ar  
    10    19    22 ar  
    11     4     3 1   
    12     5     3 ar  
    13     5     6 ar  
    14    26    25 1   
    15    26    27 1   
    16     7     6 1   
    17    18    17 ar  
    18    22    21 ar  
    19    28    27 1   
    20     3     2 ar  
    21     6     8 ar  
    22    16    15 2   
    23    27    29 1   
    24     2     1 ar  
    25     2     9 ar  
    26     8     9 ar  
    27    17    14 1   
    28    17    20 ar  
    29    21    20 ar  
    30    15    14 1   
    31     1    12 ar  
    32     9    10 ar  
    33    14    13 1   
    34    12    11 ar  
    35    12    13 1   
    36    10    11 ar  
    37     1    35 1   
    38     7    36 1   
    39     7    37 1   
    40    10    38 1   
    41    11    39 1   
    42    13    40 1   
    43    13    41 1   
    44    15    42 1   
    45    18    43 1   
    46    19    44 1   
    47    20    45 1   
    48    21    46 1   
    49    25    47 1   
    50    26    48 1   
    51    30    49 1   
    52    30    50 1   
    53    31    51 1   
    54    31    52 1   
    55     4    53 1   
@<TRIPOS>SUBSTRUCTURE
     1 6DD         1 TEMP              0 ****  ****    0 ROOT
