@<TRIPOS>MOLECULE
6DE
   34    35     1     0     0
SMALL
bcc


@<TRIPOS>ATOM
      1 O14         0.9900   -1.3600    0.8000 o         1 6DE     -0.570000
      2 C13         1.4930   -0.3630    0.2660 c         1 6DE      0.689700
      3 O15         1.3810    0.8370    0.9220 os        1 6DE     -0.437900
      4 C16         0.6920    0.8390    2.1800 c3        1 6DE      0.139400
      5 C17         1.5990    0.3840    3.2970 c3        1 6DE     -0.126100
      6 C12         2.1980   -0.2870   -0.9910 cc        1 6DE     -0.328900
      7 C18         2.4400   -1.3620   -1.8770 cd        1 6DE      0.012400
      8 C19         2.0230   -2.7680   -1.7620 c3        1 6DE     -0.061800
      9 C10         2.8110    0.8760   -1.6180 cc        1 6DE      0.380600
     10 C11         2.8130    2.2400   -1.0570 c3        1 6DE     -0.127400
     11 N9          3.3810    0.5130   -2.7970 nd        1 6DE     -0.496800
     12 N1          3.1630   -0.8140   -2.9470 na        1 6DE      0.147300
     13 C2          3.6250   -1.5450   -4.0820 ca        1 6DE      0.012800
     14 C3          3.1460   -1.2510   -5.3780 ca        1 6DE      0.033400
     15 CL4         1.9980   -0.0320   -5.6370 cl        1 6DE     -0.056400
     16 C5          3.6190   -1.9780   -6.4760 ca        1 6DE     -0.124000
     17 C6          4.5560   -2.9910   -6.2960 ca        1 6DE     -0.111000
     18 C7          5.0330   -3.2840   -5.0190 ca        1 6DE     -0.126000
     19 C8          4.5800   -2.5670   -3.9160 ca        1 6DE     -0.114000
     20 H161        0.4010    1.9180    2.2990 h1        1 6DE      0.061200
     21 H162       -0.2240    0.1950    2.1160 h1        1 6DE      0.061200
     22 H171        2.5310    0.9960    3.3220 hc        1 6DE      0.048367
     23 H172        1.0700    0.4880    4.2740 hc        1 6DE      0.048367
     24 H173        1.8800   -0.6870    3.1480 hc        1 6DE      0.048367
     25 H191        1.2130   -2.9930   -2.5030 hc        1 6DE      0.073033
     26 H192        1.6250   -2.9510   -0.7300 hc        1 6DE      0.073033
     27 H193        2.8810   -3.4610   -1.9540 hc        1 6DE      0.073033
     28 H111        3.3520    2.9670   -1.7120 hc        1 6DE      0.060033
     29 H112        3.2990    2.2220   -0.0490 hc        1 6DE      0.060033
     30 H113        1.7550    2.5820   -0.9220 hc        1 6DE      0.060033
     31 H5          3.2470   -1.7440   -7.4860 ha        1 6DE      0.154000
     32 H6          4.9220   -3.5580   -7.1650 ha        1 6DE      0.144000
     33 H7          5.7780   -4.0830   -4.8780 ha        1 6DE      0.144000
     34 H8          4.9750   -2.7980   -2.9130 ha        1 6DE      0.152000
@<TRIPOS>BOND
     1    1    2 2   
     2    2    3 1   
     3    2    6 1   
     4    3    4 1   
     5    4    5 1   
     6    4   20 1   
     7    4   21 1   
     8    5   22 1   
     9    5   23 1   
    10    5   24 1   
    11    6    7 2   
    12    6    9 1   
    13    7    8 1   
    14    7   12 1   
    15    8   25 1   
    16    8   26 1   
    17    8   27 1   
    18    9   10 1   
    19    9   11 2   
    20   10   28 1   
    21   10   29 1   
    22   10   30 1   
    23   11   12 1   
    24   12   13 1   
    25   13   14 ar  
    26   13   19 ar  
    27   14   15 1   
    28   14   16 ar  
    29   16   17 ar  
    30   16   31 1   
    31   17   18 ar  
    32   17   32 1   
    33   18   19 ar  
    34   18   33 1   
    35   19   34 1   
@<TRIPOS>SUBSTRUCTURE
     1 6DE         1 TEMP              0 ****  ****    0 ROOT
