@<TRIPOS>MOLECULE
molecule
   34    35     1     0     0
SMALL
bcc


@<TRIPOS>ATOM
      1 O14          0.0000     0.0000     0.0000 o          1 6DE      -0.541000
      2 C13          1.2150     0.0000     0.0000 c          1 6DE       0.688700
      3 O15          1.8880     0.0000     1.1670 os         1 6DE      -0.437900
      4 C16          1.1640     0.0010     2.4240 c3         1 6DE       0.152400
      5 C17          2.1580     0.0010     3.5860 c3         1 6DE      -0.095100
      6 C12          1.9510    -0.0000    -1.2750 cc         1 6DE      -0.336900
      7 C18          2.3660    -1.1110    -1.9830 cd         1 6DE      -0.012600
      8 C19          2.1440    -2.5500    -1.5950 c3         1 6DE      -0.036800
      9 C10          2.3700     1.1370    -2.0030 cc         1 6DE       0.387600
     10 C11          2.1430     2.5740    -1.6080 c3         1 6DE      -0.116400
     11 N9           2.9880     0.7270    -3.0740 nd         1 6DE      -0.492800
     12 N1           2.9940    -0.6730    -3.0870 na         1 6DE       0.154300
     13 C2           3.5660    -1.4800    -4.0800 ca         1 6DE       0.030800
     14 C3           3.3050    -1.2260    -5.4200 ca         1 6DE       0.037400
     15 Cl4          2.2740     0.0960    -5.8680 cl         1 6DE      -0.068400
     16 C5           3.8750    -2.0210    -6.3970 ca         1 6DE      -0.114000
     17 C6           4.6960    -3.0750    -6.0390 ca         1 6DE      -0.118000
     18 C7           4.9530    -3.3330    -4.7060 ca         1 6DE      -0.118000
     19 C8           4.3910    -2.5380    -3.7260 ca         1 6DE      -0.129000
     20 H161         0.5410     0.8850     2.4820 h1         1 6DE       0.045700
     21 H162         0.5410    -0.8840     2.4820 h1         1 6DE       0.045700
     22 H171         1.6170     0.0080     4.5250 hc         1 6DE       0.047367
     23 H172         2.7760    -0.8870     3.5330 hc         1 6DE       0.047367
     24 H173         2.7850     0.8820     3.5250 hc         1 6DE       0.047367
     25 H191         1.2890    -2.6180    -0.9330 hc         1 6DE       0.059700
     26 H192         1.9600    -3.1400    -2.4840 hc         1 6DE       0.059700
     27 H193         3.0240    -2.9270    -1.0870 hc         1 6DE       0.059700
     28 H111         1.0840     2.7440    -1.4570 hc         1 6DE       0.057367
     29 H112         2.6770     2.7840    -0.6890 hc         1 6DE       0.057367
     30 H113         2.5050     3.2260    -2.3930 hc         1 6DE       0.057367
     31 H5           3.6740    -1.8220    -7.4420 ha         1 6DE       0.152000
     32 H6           5.1400    -3.6980    -6.8060 ha         1 6DE       0.141000
     33 H7           5.5970    -4.1600    -4.4290 ha         1 6DE       0.141000
     34 H8           4.5940    -2.7420    -2.6810 ha         1 6DE       0.148000
@<TRIPOS>BOND
     1     1     2 2   
     2     2     3 1   
     3     2     6 1   
     4     3     4 1   
     5     4     5 1   
     6     4    20 1   
     7     4    21 1   
     8     5    22 1   
     9     5    23 1   
    10     5    24 1   
    11     6     7 2   
    12     6     9 1   
    13     7     8 1   
    14     7    12 1   
    15     8    25 1   
    16     8    26 1   
    17     8    27 1   
    18     9    10 1   
    19     9    11 2   
    20    10    28 1   
    21    10    29 1   
    22    10    30 1   
    23    11    12 1   
    24    12    13 1   
    25    13    14 ar  
    26    13    19 ar  
    27    14    15 1   
    28    14    16 ar  
    29    16    17 ar  
    30    16    31 1   
    31    17    18 ar  
    32    17    32 1   
    33    18    19 ar  
    34    18    33 1   
    35    19    34 1   
@<TRIPOS>SUBSTRUCTURE
     1 6DE         1 TEMP              0 ****  ****    0 ROOT
