@<TRIPOS>MOLECULE
6DF
   41    42     1     0     0
SMALL
bcc


@<TRIPOS>ATOM
      1 N1           0.0000     0.0000     0.0000 nb         1 6DF      -0.624000
      2 C2           1.3450     0.0000     0.0000 ca         1 6DF       0.266600
      3 N2           3.1050    -0.6790     3.8460 n2         1 6DF      -0.575900
      4 C3           2.0170     0.0000     1.2120 ca         1 6DF      -0.021200
      5 C4           1.3050     0.0350     2.4210 ca         1 6DF      -0.247900
      6 C5          -0.0910     0.0370     2.3740 ca         1 6DF      -0.107600
      7 C6          -0.7170     0.0250     1.1400 ca         1 6DF       0.363200
      8 C7           3.9000    -1.0420     5.0430 c3         1 6DF       0.215800
      9 C8           3.6510    -0.2140     6.2860 c3         1 6DF      -0.025100
     10 C9           5.3400    -1.3070     4.7730 ca         1 6DF      -0.021300
     11 C10          6.0610    -0.5270     3.8560 ca         1 6DF      -0.087500
     12 C11          7.4130    -0.7960     3.6220 ca         1 6DF      -0.128000
     13 C12          8.0360    -1.8470     4.3140 ca         1 6DF      -0.142000
     14 C13          7.3030    -2.6360     5.2280 ca         1 6DF      -0.128000
     15 O2P         -0.1000     0.9190     6.6270 o          1 6DF      -0.761167
     16 P           -1.2390     1.5630     5.8160 p5         1 6DF       0.757900
     17 O3P         -2.5270     0.7990     6.1350 o          1 6DF      -0.761167
     18 O1P         -1.3270     3.0280     6.0890 o          1 6DF      -0.761167
     19 O4P         -0.9220     1.3410     4.2600 os         1 6DF      -0.472200
     20 C5'         -0.9750     0.0430     3.6290 c3         1 6DF       0.339700
     21 C2'          2.0890    -0.0020    -1.3240 c3         1 6DF      -0.012400
     22 O3           3.3830    -0.0290     1.2300 oh         1 6DF      -0.504100
     23 C4'          1.9990    -0.0330     3.7510 ce         1 6DF       0.502800
     24 C14          5.9570    -2.3630     5.4520 ca         1 6DF      -0.087500
     25 H1          -1.7990     0.0250     1.0910 h4         1 6DF      -0.014900
     26 H2           3.5120    -2.0170     5.3120 h1         1 6DF       0.019700
     27 H3           2.6750    -0.4530     6.6890 hc         1 6DF       0.027367
     28 H4           3.6900     0.8380     6.0330 hc         1 6DF       0.027367
     29 H5           4.4110    -0.4360     7.0260 hc         1 6DF       0.027367
     30 H6           5.5850     0.3180     3.3730 ha         1 6DF       0.115500
     31 H7           7.9310    -0.2990     2.8110 ha         1 6DF       0.090500
     32 H8           9.0860    -2.0530     4.1470 ha         1 6DF       0.084000
     33 H9           7.8460    -3.4300     5.7270 ha         1 6DF       0.090500
     34 H12         -1.9970    -0.1800     3.3500 h1         1 6DF      -0.018800
     35 H13         -0.6190    -0.7090     4.3230 h1         1 6DF      -0.018800
     36 H14          2.8160     0.8000    -1.3320 hc         1 6DF      -0.006300
     37 H15          2.5960    -0.9510    -1.4520 hc         1 6DF      -0.006300
     38 H16          1.3840     0.1420    -2.1340 hc         1 6DF      -0.006300
     39 H17          3.6860    -0.8220     0.8190 ho         1 6DF       0.393000
     40 H18          2.2590     0.7340     3.0310 h4         1 6DF       0.105800
     41 H19          5.5970    -3.1700     6.0790 ha         1 6DF       0.115500
@<TRIPOS>BOND
     1     1     2 ar  
     2     1     7 ar  
     3     2     4 ar  
     4     2    21 1   
     5     3     8 1   
     6     3    23 2   
     7     4     5 ar  
     8     4    22 1   
     9     5     6 ar  
    10     5    23 1   
    11     6     7 ar  
    12     6    20 1   
    13     7    25 1   
    14     8     9 1   
    15     8    10 1   
    16     8    26 1   
    17     9    27 1   
    18     9    28 1   
    19     9    29 1   
    20    10    11 ar  
    21    10    24 ar  
    22    11    12 ar  
    23    11    30 1   
    24    12    13 ar  
    25    12    31 1   
    26    13    14 ar  
    27    13    32 1   
    28    14    24 ar  
    29    14    33 1   
    30    15    16 1   
    31    16    17 1   
    32    16    18 1   
    33    16    19 1   
    34    19    20 1   
    35    20    34 1   
    36    20    35 1   
    37    21    36 1   
    38    21    37 1   
    39    21    38 1   
    40    22    39 1   
    41    23    40 1   
    42    24    41 1   
@<TRIPOS>SUBSTRUCTURE
     1 6DF         1 TEMP              0 ****  ****    0 ROOT
