@<TRIPOS>MOLECULE
molecule
   41    42     1     0     0
SMALL
bcc


@<TRIPOS>ATOM
      1 N1           0.0000     0.0000     0.0000 nb         1 6DF      -0.713000
      2 C2           1.3450     0.0000     0.0000 ca         1 6DF       0.337600
      3 N2           3.1050    -0.6790     3.8460 n2         1 6DF      -0.675900
      4 C3           2.0170     0.0000     1.2120 ca         1 6DF       0.002800
      5 C4           1.3050     0.0350     2.4210 ca         1 6DF      -0.098900
      6 C5          -0.0910     0.0370     2.3740 ca         1 6DF      -0.134600
      7 C6          -0.7170     0.0250     1.1400 ca         1 6DF       0.388200
      8 C7           3.9000    -1.0420     5.0430 c3         1 6DF       0.183800
      9 C8           3.6510    -0.2140     6.2860 c3         1 6DF      -0.115100
     10 C9           5.3400    -1.3070     4.7730 ca         1 6DF      -0.010300
     11 C10          6.0610    -0.5270     3.8560 ca         1 6DF      -0.108500
     12 C11          7.4130    -0.7960     3.6220 ca         1 6DF      -0.153000
     13 C12          8.0360    -1.8470     4.3140 ca         1 6DF      -0.165000
     14 C13          7.3030    -2.6360     5.2280 ca         1 6DF      -0.153000
     15 O2P         -0.1000     0.9190     6.6270 o          1 6DF      -0.933500
     16 P           -1.2390     1.5630     5.8160 p5         1 6DF       1.276900
     17 O3P         -2.5270     0.7990     6.1350 o          1 6DF      -0.933500
     18 O1P         -1.3270     3.0280     6.0890 o          1 6DF      -0.933500
     19 O4P         -0.9220     1.3410     4.2600 os         1 6DF      -0.585200
     20 C5'         -0.9750     0.0430     3.6290 c3         1 6DF       0.260700
     21 C2'          2.0890    -0.0020    -1.3240 c3         1 6DF      -0.120400
     22 O3           3.3830    -0.0290     1.2300 oh         1 6DF      -0.504100
     23 C4'          1.9990    -0.0330     3.7510 ce         1 6DF       0.512800
     24 C14          5.9570    -2.3630     5.4520 ca         1 6DF      -0.108500
     25 H1          -1.7990     0.0250     1.0910 h4         1 6DF       0.026100
     26 H2           3.5120    -2.0170     5.3120 h1         1 6DF       0.046700
     27 H3           2.7040    -0.5010     6.7270 hc         1 6DF       0.056700
     28 H4           3.6230     0.8360     6.0210 hc         1 6DF       0.056700
     29 H5           4.4480    -0.3850     6.9990 hc         1 6DF       0.056700
     30 H6           5.5850     0.3170     3.3720 ha         1 6DF       0.140500
     31 H7           8.0070    -0.1110     3.0290 ha         1 6DF       0.112000
     32 H8           9.0860    -2.0530     4.1480 ha         1 6DF       0.104000
     33 H9           7.8480    -3.4350     5.7160 ha         1 6DF       0.112000
     34 H12         -1.9970    -0.1800     3.3500 h1         1 6DF       0.029200
     35 H13         -0.6190    -0.7090     4.3230 h1         1 6DF       0.029200
     36 H14          2.6540     0.9160    -1.4230 hc         1 6DF       0.034033
     37 H15          2.7650    -0.8480    -1.3570 hc         1 6DF       0.034033
     38 H16          1.3770    -0.0770    -2.1380 hc         1 6DF       0.034033
     39 H17          3.7190     0.8260     1.0180 ho         1 6DF       0.395000
     40 H18          1.5080     0.3390     4.6420 h4         1 6DF       0.073800
     41 H19          5.5890    -3.1640     6.0830 ha         1 6DF       0.140500
@<TRIPOS>BOND
     1    14    13 ar  
     2    14    24 ar  
     3    13    12 ar  
     4    24    10 ar  
     5    10    11 ar  
     6    10     8 1   
     7    12    11 ar  
     8     9     8 1   
     9     8     3 1   
    10     3    23 2   
    11    15    16 1   
    12    23     5 1   
    13    22     4 1   
    14    16    17 1   
    15    16    18 1   
    16    16    19 1   
    17     5     4 ar  
    18     5     6 ar  
    19    20    19 1   
    20    20     6 1   
    21     4     2 ar  
    22     6     7 ar  
    23     2    21 1   
    24     2     1 ar  
    25     7     1 ar  
    26     7    25 1   
    27     8    26 1   
    28     9    27 1   
    29     9    28 1   
    30     9    29 1   
    31    11    30 1   
    32    12    31 1   
    33    13    32 1   
    34    14    33 1   
    35    20    34 1   
    36    20    35 1   
    37    21    36 1   
    38    21    37 1   
    39    21    38 1   
    40    22    39 1   
    41    23    40 1   
    42    24    41 1   
@<TRIPOS>SUBSTRUCTURE
     1 6DF         1 TEMP              0 ****  ****    0 ROOT
