@<TRIPOS>MOLECULE
6DG
   47    51     1     0     0
SMALL
bcc


@<TRIPOS>ATOM
      1 C2           0.0000     0.0000     0.0000 ca         1 6DG      -0.075000
      2 C3           1.3860     0.0000     2.3960 ca         1 6DG      -0.067000
      3 C5           8.1410    -2.0440     2.4000 c3         1 6DG       0.170500
      4 C6           5.6250    -1.4340     1.1370 c3         1 6DG      -0.039400
      5 C8          12.9080    -1.1960     5.9500 cc         1 6DG      -0.230300
      6 C9          12.4770    -2.0720     5.0100 cd         1 6DG      -0.159300
      7 F27          2.0600    -0.0000    -1.1700 f          1 6DG      -0.136900
      8 C12          1.3840     0.0000     0.0000 ca         1 6DG       0.037900
      9 C13          2.0770     0.0000     1.1990 ca         1 6DG      -0.174300
     10 C11          0.0020     0.0110     2.3960 ca         1 6DG       0.131900
     11 F26         -0.6740     0.0170     3.5660 f          1 6DG      -0.101900
     12 C1          -0.6910     0.0060     1.1970 ca         1 6DG      -0.076000
     13 C19          3.5830     0.0000     1.1990 c3         1 6DG       0.251400
     14 C18          4.0940    -1.4380     1.0760 c3         1 6DG      -0.118500
     15 N20          3.6560    -2.0060    -0.2060 nz         1 6DG       0.063400
     16 O25          4.0610     0.5700     2.4210 os         1 6DG      -0.364600
     17 C7           5.4850     0.6420     2.5130 c3         1 6DG       0.199400
     18 C17          6.0710    -0.7700     2.4420 c3         1 6DG       0.103500
     19 N24          7.5380    -0.6940     2.4780 n3         1 6DG      -0.536600
     20 C4           8.0110    -0.1660     3.7780 c3         1 6DG       0.273000
     21 C15          9.4090    -1.9740     3.2230 cc         1 6DG       0.404600
     22 N21         10.5530    -2.5820     3.4470 nd         1 6DG      -0.690100
     23 N23         11.2600    -1.8740     4.4250 na         1 6DG       0.554200
     24 C16         10.4940    -0.7980     4.7950 cd         1 6DG       0.233500
     25 C14          9.3290    -0.8550     4.0430 cc         1 6DG      -0.389800
     26 N22         10.9310     0.0620     5.7260 nd         1 6DG      -0.549000
     27 C10         12.0980    -0.1080     6.3020 cc         1 6DG       0.427200
     28 H1          -0.5420    -0.0040    -0.9380 ha         1 6DG       0.139000
     29 H2           1.9270     0.0000     3.3340 ha         1 6DG       0.150000
     30 H5           5.9900    -2.4540     1.1070 hc         1 6DG       0.045200
     31 H6           6.0190    -0.8780     0.2950 hc         1 6DG       0.045200
     32 H7          13.8650    -1.3030     6.4470 ha         1 6DG       0.139000
     33 H8          13.1090    -2.9110     4.7450 h4         1 6DG       0.153000
     34 H9          -1.7740     0.0100     1.1970 ha         1 6DG       0.143000
     35 H10          3.9490     0.5840     0.3630 h1         1 6DG       0.041700
     36 H11          3.7020    -2.0310     1.8930 hx         1 6DG       0.102700
     37 H12          3.8780    -1.3700    -0.9460 hn         1 6DG       0.231467
     38 H13          2.6670    -2.1590    -0.1820 hn         1 6DG       0.231467
     39 H15          5.8700     1.2340     1.6920 h1         1 6DG       0.044200
     40 H16          5.7610     1.1000     3.4560 h1         1 6DG       0.044200
     41 H17          5.7130    -1.3510     3.2830 h1         1 6DG       0.033700
     42 H18          8.1560     0.9050     3.7150 h1         1 6DG       0.022200
     43 H19         12.3460     0.6470     7.0370 h4         1 6DG      -0.000900
     44 H14          7.3000    -0.4080     4.5590 h1         1 6DG       0.022200
     45 H3           8.3780    -2.2870     1.3710 h1         1 6DG       0.018700
     46 H203         4.1290    -2.8730    -0.3650 hn         1 6DG       0.231467
     47 H4           7.4650    -2.7790     2.8190 h1         1 6DG       0.018700
@<TRIPOS>BOND
     1     1     8 ar  
     2     1    12 ar  
     3     1    28 1   
     4     2     9 ar  
     5     2    10 ar  
     6     2    29 1   
     7     3    19 1   
     8     3    21 1   
     9     3    45 1   
    10     3    47 1   
    11     4    14 1   
    12     4    18 1   
    13     4    30 1   
    14     4    31 1   
    15     5     6 2   
    16     5    27 1   
    17     5    32 1   
    18     6    23 1   
    19     6    33 1   
    20     7     8 1   
    21     8     9 ar  
    22     9    13 1   
    23    10    11 1   
    24    10    12 ar  
    25    12    34 1   
    26    13    14 1   
    27    13    16 1   
    28    13    35 1   
    29    14    15 1   
    30    14    36 1   
    31    15    37 1   
    32    15    38 1   
    33    15    46 1   
    34    16    17 1   
    35    17    18 1   
    36    17    39 1   
    37    17    40 1   
    38    18    19 1   
    39    18    41 1   
    40    19    20 1   
    41    20    25 1   
    42    20    42 1   
    43    20    44 1   
    44    21    22 2   
    45    21    25 1   
    46    22    23 1   
    47    23    24 1   
    48    24    25 2   
    49    24    26 1   
    50    26    27 2   
    51    27    43 1   
@<TRIPOS>SUBSTRUCTURE
     1 6DG         1 TEMP              0 ****  ****    0 ROOT
