@<TRIPOS>MOLECULE
molecule
   47    51     1     0     0
SMALL
bcc


@<TRIPOS>ATOM
      1 C2           0.0000     0.0000     0.0000 ca         1 6DG      -0.116000
      2 C3           1.3860     0.0000     2.3960 ca         1 6DG      -0.108000
      3 C5           8.1410    -2.0440     2.4000 c3         1 6DG       0.153500
      4 C6           5.6250    -1.4340     1.1370 c3         1 6DG      -0.107400
      5 C8          12.9080    -1.1960     5.9500 cc         1 6DG      -0.307300
      6 C9          12.4770    -2.0720     5.0100 cd         1 6DG       0.024700
      7 F27          2.0600    -0.0000    -1.1700 f          1 6DG      -0.162900
      8 C12          1.3840     0.0000     0.0000 ca         1 6DG       0.068900
      9 C13          2.0770     0.0000     1.1990 ca         1 6DG      -0.152300
     10 C11          0.0020     0.0110     2.3960 ca         1 6DG       0.150900
     11 F26         -0.6740     0.0170     3.5660 f          1 6DG      -0.107900
     12 C1          -0.6910     0.0060     1.1970 ca         1 6DG      -0.119000
     13 C19          3.5830     0.0000     1.1990 c3         1 6DG       0.192400
     14 C18          4.0940    -1.4380     1.0760 c3         1 6DG       0.065500
     15 N20          3.6560    -2.0060    -0.2060 nz         1 6DG      -0.804600
     16 O25          4.0610     0.5700     2.4210 os         1 6DG      -0.377600
     17 C7           5.4850     0.6420     2.5130 c3         1 6DG       0.128400
     18 C17          6.0710    -0.7700     2.4420 c3         1 6DG       0.136500
     19 N24          7.5380    -0.6940     2.4780 n3         1 6DG      -0.689600
     20 C4           8.0110    -0.1660     3.7780 c3         1 6DG       0.239000
     21 C15          9.4090    -1.9740     3.2230 cd         1 6DG       0.379600
     22 N21         10.5530    -2.5820     3.4470 nc         1 6DG      -0.533100
     23 N23         11.2600    -1.8740     4.4250 na         1 6DG       0.052200
     24 C16         10.4940    -0.7980     4.7950 cc         1 6DG       0.438500
     25 C14          9.3290    -0.8550     4.0430 cd         1 6DG      -0.360800
     26 N22         10.9310     0.0620     5.7260 nc         1 6DG      -0.678000
     27 C10         12.0980    -0.1080     6.3020 cc         1 6DG       0.472200
     28 H1          -0.5420    -0.0040    -0.9380 ha         1 6DG       0.172000
     29 H2           1.9270     0.0000     3.3340 ha         1 6DG       0.182000
     30 H5           5.9900    -2.4540     1.1070 hc         1 6DG       0.075200
     31 H6           6.0190    -0.8780     0.2950 hc         1 6DG       0.075200
     32 H7          13.8650    -1.3030     6.4470 ha         1 6DG       0.172000
     33 H8          13.1090    -2.9110     4.7450 h4         1 6DG       0.187000
     34 H9          -1.7740     0.0100     1.1970 ha         1 6DG       0.178000
     35 H10          3.9490     0.5840     0.3630 h1         1 6DG       0.073700
     36 H11          3.7020    -2.0310     1.8930 hx         1 6DG       0.124700
     37 H12          3.8780    -1.3700    -0.9460 hn         1 6DG       0.458133
     38 H13          2.6670    -2.1590    -0.1820 hn         1 6DG       0.458133
     39 H15          5.8700     1.2340     1.6920 h1         1 6DG       0.088200
     40 H16          5.7610     1.1000     3.4560 h1         1 6DG       0.088200
     41 H17          5.7130    -1.3510     3.2830 h1         1 6DG       0.052700
     42 H18          8.1560     0.9050     3.7150 h1         1 6DG       0.058700
     43 H19         12.3460     0.6470     7.0370 h4         1 6DG       0.048100
     44 H14          7.3000    -0.4080     4.5590 h1         1 6DG       0.058700
     45 H3           8.3780    -2.2870     1.3710 h1         1 6DG       0.056700
     46 H203         4.1290    -2.8730    -0.3650 hn         1 6DG       0.458133
     47 H4           7.4650    -2.7790     2.8190 h1         1 6DG       0.056700
@<TRIPOS>BOND
     1    15    14 1   
     2    14     4 1   
     3    14    13 1   
     4    11    10 1   
     5     4    18 1   
     6    10    12 ar  
     7    10     2 ar  
     8     3    21 1   
     9     3    19 1   
    10    12     1 ar  
    11     2     9 ar  
    12    22    21 2   
    13    22    23 1   
    14     1     8 ar  
    15    21    25 1   
    16     9     8 ar  
    17     9    13 1   
    18    18    19 1   
    19    18    17 1   
    20     8     7 1   
    21    13    16 1   
    22    19    20 1   
    23    23     6 1   
    24    23    24 1   
    25     6     5 2   
    26    16    17 1   
    27    25    20 1   
    28    25    24 2   
    29    24    26 1   
    30     5    27 1   
    31    26    27 2   
    32     1    28 1   
    33     2    29 1   
    34     3    45 1   
    35     3    47 1   
    36     4    30 1   
    37     4    31 1   
    38     5    32 1   
    39     6    33 1   
    40    12    34 1   
    41    13    35 1   
    42    14    36 1   
    43    15    37 1   
    44    15    38 1   
    45    17    39 1   
    46    17    40 1   
    47    18    41 1   
    48    20    42 1   
    49    27    43 1   
    50    20    44 1   
    51    46    15 1   
@<TRIPOS>SUBSTRUCTURE
     1 6DG         1 TEMP              0 ****  ****    0 ROOT
