@<TRIPOS>MOLECULE
6DH
   28    26     1     0     0
SMALL
bcc


@<TRIPOS>ATOM
      1 F01         0.9110    3.2710   -0.6020 f         1 6DH     -0.174000
      2 F02         0.5900    1.1890   -1.0920 f         1 6DH     -0.174000
      3 F           2.3090    2.2200   -1.8990 f         1 6DH     -0.174000
      4 C01         1.5830    2.0800   -0.7400 c3        1 6DH      0.359000
      5 O           6.2700    1.4320   10.5460 oh        1 6DH     -0.392000
      6 C02         3.9250    1.5170    8.8120 c3        1 6DH     -0.208000
      7 C03         3.7790    0.9210    7.4720 c2        1 6DH     -0.061000
      8 N01         1.2080    0.1080    5.0290 n3        1 6DH     -0.209000
      9 C05         2.5430    0.4740    5.3590 c2        1 6DH      0.188000
     10 C06         2.1990    0.5710    1.1830 c2        1 6DH     -0.225000
     11 N           3.6070    0.4020    4.6050 n2        1 6DH     -0.202000
     12 C07         2.4690    1.7620    0.4710 c1        1 6DH      0.021000
     13 C08         0.6460   -1.8720    3.5280 c1        1 6DH     -0.212000
     14 C09         2.9060    0.2720    2.2600 c1        1 6DH      0.025000
     15 C10         0.9440   -0.9520    4.2390 c1        1 6DH     -0.101000
     16 C           3.6720   -0.0220    3.2870 c2        1 6DH     -0.032000
     17 H1          7.1470    1.2960   10.1770 ho        1 6DH      0.196000
     18 H2          6.4420    1.6650   11.4620 ho        1 6DH      0.196000
     19 H3          3.0070    2.0660    9.1360 hc        1 6DH      0.099667
     20 H4          4.1550    0.7220    9.5680 hc        1 6DH      0.099667
     21 H5          4.6460    0.3340    7.1200 ha        1 6DH      0.141000
     22 H6          4.7900    2.2310    8.8190 hc        1 6DH      0.099667
     23 H7          1.8210    1.6670    7.0620 ha        1 6DH      0.143000
     24 H8          0.5390    0.2350    5.7670 hn        1 6DH      0.235000
     25 H9          1.3970   -0.1280    0.8620 ha        1 6DH      0.139000
     26 H11         0.3860   -2.6760    2.8900 ha        1 6DH      0.241000
     27 H12         4.6030   -0.6080    3.0890 h4        1 6DH      0.187000
     28 C04         2.6820    1.0690    6.7190 c2        1 6DH     -0.206000
@<TRIPOS>BOND
     1    1    4 1   
     2    2    4 1   
     3    3    4 1   
     4    4   12 1   
     5    5   17 1   
     6    5   18 1   
     7    6    7 1   
     8    6   19 1   
     9    6   20 1   
    10    6   22 1   
    11    7   21 1   
    12    7   28 1   
    13    8    9 1   
    14    8   15 1   
    15    8   24 1   
    16    9   11 1   
    17    9   28 1   
    18   10   12 1   
    19   10   14 1   
    20   10   25 1   
    21   11   16 1   
    22   13   15 1   
    23   13   26 1   
    24   14   16 1   
    25   16   27 1   
    26   23   28 1   
@<TRIPOS>SUBSTRUCTURE
     1 6DH         1 TEMP              0 ****  ****    0 ROOT
