@<TRIPOS>MOLECULE
molecule
   28    29     1     0     0
SMALL
bcc


@<TRIPOS>ATOM
      1 F01          0.0000     0.0000     0.0000 f          1 6DH      -0.223967
      2 F02          1.8660    -1.3060    -0.1820 f          1 6DH      -0.223967
      3 F            1.8640     0.8110    -1.0420 f          1 6DH      -0.223967
      4 C01          1.3990     0.0000     0.0000 c3         1 6DH       0.677200
      5 O            5.6480     0.7420     9.5900 oh         1 6DH      -0.605800
      6 C02          4.2700     0.7590     9.2130 c3         1 6DH       0.140400
      7 C03          4.1600     0.8140     7.6880 c3         1 6DH      -0.077400
      8 N01          1.8810     0.0000     5.0170 na         1 6DH      -0.259300
      9 C05          2.5770     0.8850     5.7800 cc         1 6DH       0.437800
     10 C06          2.6980     1.6710     1.3390 ca         1 6DH      -0.109000
     11 N            3.1350     1.7850     5.0250 nd         1 6DH      -0.602100
     12 C07          1.9010     0.5350     1.3160 ca         1 6DH      -0.170300
     13 C08          1.5660    -0.1070     2.4890 ca         1 6DH      -0.071000
     14 C09          3.1640     2.1710     2.5220 ca         1 6DH      -0.074000
     15 C10          2.0270     0.3890     3.7000 ca         1 6DH      -0.106200
     16 C            2.8350     1.5380     3.7230 ca         1 6DH       0.119400
     17 H1           5.7160     0.7080    10.5300 ho         1 6DH       0.404000
     18 H2           3.7840    -0.1370     9.5780 h1         1 6DH       0.018200
     19 H3           3.7890     1.6310     9.6410 h1         1 6DH       0.018200
     20 H4           4.6410    -0.0570     7.2600 hc         1 6DH       0.071700
     21 H5           4.6460     1.7110     7.3230 hc         1 6DH       0.071700
     22 H6           2.2030     1.7040     7.7100 hc         1 6DH       0.060200
     23 H7           2.1980    -0.0640     7.6480 hc         1 6DH       0.060200
     24 H8           1.2610    -0.7090     5.3560 hn         1 6DH       0.305700
     25 H9           2.9520     2.1660     0.4100 ha         1 6DH       0.153000
     26 H11          1.0290    -1.0470     2.4580 ha         1 6DH       0.140000
     27 H12          3.7850     3.0590     2.5280 ha         1 6DH       0.152000
     28 C04          2.6840     0.8320     7.2830 c3         1 6DH      -0.082700
@<TRIPOS>BOND
     1     5     6 1
     2     6     7 1
     3     7    28 1
     4    28     9 1
     5     9    11 2
     6     9     8 1
     7    11    16 1
     8     8    15 1
     9    16    14 ar
    10    16    15 ar
    11    14    10 ar
    12    15    13 ar
    13    10    12 ar
    14    13    12 ar
    15    12     4 1
    16     4     3 1
    17     4     2 1
    18     4     1 1
    19     5    17 1
    20     6    18 1
    21     6    19 1
    22     7    20 1
    23     7    21 1
    24    28    22 1
    25    28    23 1
    26     8    24 1
    27    10    25 1
    28    13    26 1
    29    14    27 1
@<TRIPOS>SUBSTRUCTURE
     1 6DH         1 TEMP              0 ****  ****    0 ROOT
