@<TRIPOS>MOLECULE
6DJ
   37    38     1     0     0
SMALL
bcc


@<TRIPOS>ATOM
      1 O2           0.0000     0.0000     0.0000 oh         1 6DJ      -0.578800
      2 C2           1.4290     0.0000     0.0000 c3         1 6DJ       0.146100
      3 C3           1.9370     0.0000     1.4420 c3         1 6DJ       0.161100
      4 O3           1.4000    -1.1290     2.1350 oh         1 6DJ      -0.571800
      5 C1           1.9390     1.2480    -0.7280 c3         1 6DJ       0.172800
      6 N5           3.4160     1.2890    -0.5640 nh         1 6DJ      -0.448600
      7 C5           4.0310     1.1640     0.7540 c3         1 6DJ       0.132500
      8 C4           3.4670    -0.0750     1.4560 c3         1 6DJ       0.156100
      9 O4           3.8940    -1.2510     0.7660 oh         1 6DJ      -0.565800
     10 S6           5.9420     1.3240    -1.0720 ss         1 6DJ      -0.369300
     11 C6           5.5540     1.0980     0.6900 c3         1 6DJ       0.081700
     12 C7           4.2690     1.4390    -1.6220 c2         1 6DJ       0.558100
     13 N8           3.9010     1.6390    -2.8570 n2         1 6DJ      -0.612900
     14 C9           4.9100     1.7860    -3.9080 c3         1 6DJ       0.168800
     15 C10          4.7980     0.6170    -4.8900 c3         1 6DJ      -0.032400
     16 C11          5.8520     0.7700    -5.9880 c3         1 6DJ      -0.027400
     17 C12          5.7400    -0.3970    -6.9700 c3         1 6DJ       0.006900
     18 H1          -0.3140    -0.5690    -0.6830 ho         1 6DJ       0.397000
     19 H2           1.7930    -0.8850    -0.5080 h1         1 6DJ       0.036700
     20 H3           1.6190     0.9120     1.9320 h1         1 6DJ       0.012700
     21 H4           0.9940    -0.8420     2.9360 ho         1 6DJ       0.391000
     22 H5           1.7530     1.0830    -1.7830 h1         1 6DJ       0.050200
     23 H6           1.5470     2.1000    -0.1850 h1         1 6DJ       0.050200
     24 H7           3.7570     2.0350     1.3370 h1         1 6DJ       0.033700
     25 H8           3.8180    -0.1010     2.4810 h1         1 6DJ       0.012700
     26 H9           4.1960    -1.8900     1.3910 ho         1 6DJ       0.398000
     27 H10          5.9280     1.9720     1.2090 h1         1 6DJ       0.070200
     28 H11          5.8360     0.0840     0.9470 h1         1 6DJ       0.070200
     29 H12          5.8980     1.7900    -3.4630 h1         1 6DJ       0.016200
     30 H13          4.7490     2.7180    -4.4360 h1         1 6DJ       0.016200
     31 H14          4.9590    -0.3150    -4.3620 hc         1 6DJ       0.021200
     32 H15          3.8110     0.6140    -5.3350 hc         1 6DJ       0.021200
     33 H16          6.8400     0.7730    -5.5430 hc         1 6DJ       0.011200
     34 H17          5.6910     1.7020    -6.5160 hc         1 6DJ       0.011200
     35 H18          6.4870    -0.2890    -7.7470 hc         1 6DJ      -0.000300
     36 H19          4.7520    -0.4000    -7.4150 hc         1 6DJ      -0.000300
     37 H20          5.9010    -1.3300    -6.4420 hc         1 6DJ      -0.000300
@<TRIPOS>BOND
     1     1     2 1   
     2     1    18 1   
     3     2     3 1   
     4     2     5 1   
     5     2    19 1   
     6     3     4 1   
     7     3     8 1   
     8     3    20 1   
     9     4    21 1   
    10     5     6 1   
    11     5    22 1   
    12     5    23 1   
    13     6     7 1   
    14     6    12 1   
    15     7     8 1   
    16     7    11 1   
    17     7    24 1   
    18     8     9 1   
    19     8    25 1   
    20     9    26 1   
    21    10    11 1   
    22    10    12 1   
    23    11    27 1   
    24    11    28 1   
    25    12    13 2   
    26    13    14 1   
    27    14    15 1   
    28    14    29 1   
    29    14    30 1   
    30    15    16 1   
    31    15    31 1   
    32    15    32 1   
    33    16    17 1   
    34    16    33 1   
    35    16    34 1   
    36    17    35 1   
    37    17    36 1   
    38    17    37 1   
@<TRIPOS>SUBSTRUCTURE
     1 6DJ         1 TEMP              0 ****  ****    0 ROOT
