@<TRIPOS>MOLECULE
molecule
   37    38     1     0     0
SMALL
bcc


@<TRIPOS>ATOM
      1 O2           0.0000     0.0000     0.0000 oh         1 6DJ      -0.601800
      2 C2           1.4290     0.0000     0.0000 c3         1 6DJ       0.111100
      3 C3           1.9370     0.0000     1.4420 c3         1 6DJ       0.131100
      4 O3           1.4000    -1.1290     2.1350 oh         1 6DJ      -0.592800
      5 C1           1.9390     1.2480    -0.7280 c3         1 6DJ       0.240800
      6 N5           3.4160     1.2890    -0.5640 nh         1 6DJ      -0.797600
      7 C5           4.0310     1.1640     0.7540 c3         1 6DJ       0.228500
      8 C4           3.4670    -0.0750     1.4560 c3         1 6DJ       0.119100
      9 O4           3.8940    -1.2510     0.7660 oh         1 6DJ      -0.583800
     10 S6           5.9420     1.3240    -1.0720 ss         1 6DJ      -0.329300
     11 C6           5.5540     1.0980     0.6900 c3         1 6DJ       0.005700
     12 C7           4.2690     1.4390    -1.6220 c2         1 6DJ       0.708100
     13 N8           3.9010     1.6390    -2.8570 n2         1 6DJ      -0.690900
     14 C9           4.9100     1.7860    -3.9080 c3         1 6DJ       0.142800
     15 C10          4.7980     0.6170    -4.8900 c3         1 6DJ      -0.080400
     16 C11          5.8520     0.7700    -5.9880 c3         1 6DJ      -0.085400
     17 C12          5.7400    -0.3970    -6.9700 c3         1 6DJ      -0.090100
     18 H1          -0.3140    -0.5690    -0.6830 ho         1 6DJ       0.411000
     19 H2           1.7930    -0.8850    -0.5080 h1         1 6DJ       0.073700
     20 H3           1.6190     0.9120     1.9320 h1         1 6DJ       0.044700
     21 H4           0.9930    -0.8420     2.9360 ho         1 6DJ       0.405000
     22 H5           1.5470     2.1000    -0.1850 h1         1 6DJ       0.081200
     23 H6           1.7530     1.0830    -1.7830 h1         1 6DJ       0.081200
     24 H7           3.7570     2.0350     1.3370 h1         1 6DJ       0.057700
     25 H8           3.8180    -0.1010     2.4810 h1         1 6DJ       0.045700
     26 H9           4.1960    -1.8900     1.3910 ho         1 6DJ       0.409000
     27 H10          5.9280     1.9720     1.2090 h1         1 6DJ       0.095200
     28 H11          5.8360     0.0840     0.9470 h1         1 6DJ       0.095200
     29 H12          4.7490     2.7180    -4.4360 h1         1 6DJ       0.043700
     30 H13          5.8980     1.7900    -3.4630 h1         1 6DJ       0.043700
     31 H14          4.9590    -0.3150    -4.3620 hc         1 6DJ       0.050200
     32 H15          3.8110     0.6140    -5.3350 hc         1 6DJ       0.050200
     33 H16          5.6910     1.7020    -6.5160 hc         1 6DJ       0.039200
     34 H17          6.8400     0.7730    -5.5430 hc         1 6DJ       0.039200
     35 H18          5.9010    -1.3300    -6.4420 hc         1 6DJ       0.033033
     36 H19          4.7520    -0.4010    -7.4150 hc         1 6DJ       0.033033
     37 H20          6.4860    -0.2890    -7.7470 hc         1 6DJ       0.033033
@<TRIPOS>BOND
     1     1     2 1
     2    16    15 1
     3    16    17 1
     4     5     2 1
     5     5     6 1
     6    15    14 1
     7     2     3 1
     8    14    13 1
     9    13    12 2
    10     6    12 1
    11     6     7 1
    12    12    10 1
    13     3     4 1
    14     3     8 1
    15     7     8 1
    16     7    11 1
    17     8     9 1
    18    10    11 1
    19     1    18 1
    20     2    19 1
    21     3    20 1
    22     4    21 1
    23     5    22 1
    24     5    23 1
    25     7    24 1
    26     8    25 1
    27     9    26 1
    28    11    27 1
    29    11    28 1
    30    14    29 1
    31    14    30 1
    32    15    31 1
    33    15    32 1
    34    16    33 1
    35    16    34 1
    36    17    35 1
    37    17    36 1
    38    17    37 1
@<TRIPOS>SUBSTRUCTURE
     1 6DJ         1 TEMP              0 ****  ****    0 ROOT
