@<TRIPOS>MOLECULE
6DK
   42    42     1     0     0
SMALL
bcc


@<TRIPOS>ATOM
      1 N            0.0000     0.0000     0.0000 ns         1 6DK      -0.028100
      2 C1           8.8780    -1.2980    -4.5950 c3         1 6DK       0.325600
      3 O1           8.3500    -2.2070    -5.5280 oh         1 6DK      -0.575300
      4 C2           7.9250    -1.1400    -3.3930 c3         1 6DK      -0.036400
      5 O2           8.9020    -0.2030    -5.4970 oh         1 6DK      -0.575300
      6 C3           6.4900    -0.7220    -3.7010 c3         1 6DK      -0.009400
      7 C4           5.7740    -0.3930    -2.3880 c3         1 6DK      -0.028400
      8 C5           4.2570    -0.2880    -2.5570 c3         1 6DK      -0.025400
      9 C6           3.5860    -0.1090    -1.1890 c3         1 6DK      -0.012400
     10 C7           2.0720     0.1310    -1.3430 c3         1 6DK      -0.102400
     11 C8           1.3610     0.0000     0.0000 c          1 6DK       0.562100
     12 C9          -0.7880     0.0000     1.1510 ca         1 6DK      -0.091400
     13 C10         -0.4530    -0.5940     2.3860 ca         1 6DK      -0.118000
     14 C11         -1.2470    -0.4140     3.5260 ca         1 6DK      -0.082000
     15 C12         -2.4140     0.3790     3.4680 ca         1 6DK      -0.112000
     16 C13         -2.7480     0.9920     2.2560 ca         1 6DK      -0.082000
     17 C14         -1.9330     0.7980     1.1260 ca         1 6DK      -0.118000
     18 F2          10.7870    -0.8440    -3.2880 f          1 6DK      -0.189633
     19 C           10.2710    -1.7310    -4.1100 c3         1 6DK       0.502900
     20 F           10.1870    -2.8650    -3.4620 f          1 6DK      -0.189633
     21 F1          11.0860    -1.8890    -5.1350 f          1 6DK      -0.189633
     22 O            2.0660    -0.1000     0.9930 o          1 6DK      -0.623100
     23 H1          -0.4670    -0.0000    -0.8850 hn         1 6DK       0.165500
     24 H2           8.8110    -2.1210    -6.3470 ho         1 6DK       0.408500
     25 H3           8.3510    -0.4010    -2.7250 hc         1 6DK       0.032200
     26 H4           7.8900    -2.0870    -2.8680 hc         1 6DK       0.032200
     27 H5           9.5480     0.4230    -5.2140 ho         1 6DK       0.408500
     28 H6           5.9750    -1.5330    -4.2020 hc         1 6DK       0.026200
     29 H7           6.4960     0.1530    -4.3400 hc         1 6DK       0.026200
     30 H8           6.1500     0.5510    -2.0110 hc         1 6DK       0.014700
     31 H9           5.9930    -1.1700    -1.6660 hc         1 6DK       0.014700
     32 H10          3.8850    -1.1920    -3.0240 hc         1 6DK       0.012200
     33 H11          4.0240     0.5630    -3.1850 hc         1 6DK       0.012200
     34 H12          3.7450    -1.0020    -0.5960 hc         1 6DK       0.029200
     35 H13          4.0310     0.7390    -0.6830 hc         1 6DK       0.029200
     36 H14          1.9080     1.1270    -1.7360 hc         1 6DK       0.024700
     37 H15          1.6640    -0.5960    -2.0340 hc         1 6DK       0.024700
     38 H16          0.4380    -1.2070     2.4540 ha         1 6DK       0.112500
     39 H17         -0.9660    -0.8910     4.4570 ha         1 6DK       0.104000
     40 H18         -3.0310     0.5200     4.3470 ha         1 6DK       0.106000
     41 H19         -3.6320     1.6140     2.1870 ha         1 6DK       0.104000
     42 H20         -2.2090     1.2810     0.1970 ha         1 6DK       0.112500
@<TRIPOS>BOND
     1     1    11 1   
     2     1    12 1   
     3     1    23 1   
     4     2     3 1   
     5     2     4 1   
     6     2     5 1   
     7     2    19 1   
     8     3    24 1   
     9     4     6 1   
    10     4    25 1   
    11     4    26 1   
    12     5    27 1   
    13     6     7 1   
    14     6    28 1   
    15     6    29 1   
    16     7     8 1   
    17     7    30 1   
    18     7    31 1   
    19     8     9 1   
    20     8    32 1   
    21     8    33 1   
    22     9    10 1   
    23     9    34 1   
    24     9    35 1   
    25    10    11 1   
    26    10    36 1   
    27    10    37 1   
    28    11    22 2   
    29    12    13 ar  
    30    12    17 ar  
    31    13    14 ar  
    32    13    38 1   
    33    14    15 ar  
    34    14    39 1   
    35    15    16 ar  
    36    15    40 1   
    37    16    17 ar  
    38    16    41 1   
    39    17    42 1   
    40    18    19 1   
    41    19    20 1   
    42    19    21 1   
@<TRIPOS>SUBSTRUCTURE
     1 6DK         1 TEMP              0 ****  ****    0 ROOT
