@<TRIPOS>MOLECULE
molecule
   42    42     1     0     0
SMALL
bcc


@<TRIPOS>ATOM
      1 N            0.0000     0.0000     0.0000 ns         1 6DK      -0.473100
      2 C1           8.8780    -1.2980    -4.5950 c3         1 6DK       0.291600
      3 O1           8.3500    -2.2070    -5.5280 oh         1 6DK      -0.589800
      4 C2           7.9250    -1.1400    -3.3930 c3         1 6DK      -0.079400
      5 O2           8.9020    -0.2030    -5.4970 oh         1 6DK      -0.589800
      6 C3           6.4900    -0.7220    -3.7010 c3         1 6DK      -0.064400
      7 C4           5.7740    -0.3930    -2.3880 c3         1 6DK      -0.082400
      8 C5           4.2570    -0.2880    -2.5570 c3         1 6DK      -0.080400
      9 C6           3.5860    -0.1090    -1.1890 c3         1 6DK      -0.065400
     10 C7           2.0720     0.1310    -1.3430 c3         1 6DK      -0.160400
     11 C8           1.3610     0.0000     0.0000 c          1 6DK       0.661100
     12 C9          -0.7880     0.0000     1.1510 ca         1 6DK       0.056600
     13 C10         -0.4530    -0.5940     2.3860 ca         1 6DK      -0.149000
     14 C11         -1.2470    -0.4140     3.5260 ca         1 6DK      -0.112000
     15 C12         -2.4140     0.3790     3.4680 ca         1 6DK      -0.144000
     16 C13         -2.7480     0.9920     2.2560 ca         1 6DK      -0.112000
     17 C14         -1.9330     0.7980     1.1260 ca         1 6DK      -0.149000
     18 F2          10.7870    -0.8440    -3.2880 f          1 6DK      -0.230300
     19 C           10.2710    -1.7310    -4.1100 c3         1 6DK       0.630900
     20 F           10.1870    -2.8650    -3.4620 f          1 6DK      -0.230300
     21 F1          11.0860    -1.8890    -5.1350 f          1 6DK      -0.230300
     22 O            2.0660    -0.1000     0.9930 o          1 6DK      -0.585100
     23 H1          -0.4670    -0.0000    -0.8850 hn         1 6DK       0.323500
     24 H2           8.8110    -2.1210    -6.3470 ho         1 6DK       0.425000
     25 H3           8.3510    -0.4010    -2.7250 hc         1 6DK       0.063200
     26 H4           7.8900    -2.0870    -2.8680 hc         1 6DK       0.063200
     27 H5           9.5480     0.4230    -5.2140 ho         1 6DK       0.425000
     28 H6           5.9750    -1.5330    -4.2020 hc         1 6DK       0.056200
     29 H7           6.4960     0.1530    -4.3400 hc         1 6DK       0.056200
     30 H8           6.1500     0.5510    -2.0110 hc         1 6DK       0.042200
     31 H9           5.9930    -1.1700    -1.6660 hc         1 6DK       0.042200
     32 H10          3.8850    -1.1920    -3.0240 hc         1 6DK       0.040700
     33 H11          4.0240     0.5630    -3.1850 hc         1 6DK       0.040700
     34 H12          3.7450    -1.0020    -0.5960 hc         1 6DK       0.058200
     35 H13          4.0310     0.7390    -0.6830 hc         1 6DK       0.058200
     36 H14          1.9080     1.1270    -1.7360 hc         1 6DK       0.058200
     37 H15          1.6640    -0.5960    -2.0340 hc         1 6DK       0.058200
     38 H16          0.4380    -1.2070     2.4540 ha         1 6DK       0.137000
     39 H17         -0.9660    -0.8910     4.4570 ha         1 6DK       0.134000
     40 H18         -3.0310     0.5200     4.3470 ha         1 6DK       0.134000
     41 H19         -3.6320     1.6140     2.1870 ha         1 6DK       0.134000
     42 H20         -2.2090     1.2810     0.1970 ha         1 6DK       0.137000
@<TRIPOS>BOND
     1    15    16 ar  
     2    15    14 ar  
     3    16    17 ar  
     4    14    13 ar  
     5    17    12 ar  
     6    13    12 ar  
     7    12     1 1   
     8     1    11 1   
     9    11    22 2   
    10    11    10 1   
    11    10     9 1   
    12     9     8 1   
    13     8     7 1   
    14     7     6 1   
    15     6     4 1   
    16     4     2 1   
    17     3     2 1   
    18     2     5 1   
    19     2    19 1   
    20    20    19 1   
    21    19    18 1   
    22    19    21 1   
    23     1    23 1   
    24     3    24 1   
    25     4    25 1   
    26     4    26 1   
    27     5    27 1   
    28     6    28 1   
    29     6    29 1   
    30     7    30 1   
    31     7    31 1   
    32     8    32 1   
    33     8    33 1   
    34     9    34 1   
    35     9    35 1   
    36    10    36 1   
    37    10    37 1   
    38    13    38 1   
    39    14    39 1   
    40    15    40 1   
    41    16    41 1   
    42    17    42 1   
@<TRIPOS>SUBSTRUCTURE
     1 6DK         1 TEMP              0 ****  ****    0 ROOT
