@<TRIPOS>MOLECULE
molecule
   31    33     1     0     0
SMALL
bcc


@<TRIPOS>ATOM
      1 C1           0.0000     0.0000     0.0000 ca         1 6DL       0.177100
      2 C2           1.3900     0.0000     0.0000 ca         1 6DL      -0.233000
      3 C3           2.0250     0.0000     1.2340 ca         1 6DL       0.183100
      4 C9           1.9910     0.0260     3.7310 cc         1 6DL       0.431500
      5 C12          2.7930     0.7200     5.6790 c          1 6DL       0.770500
      6 C14          1.1330     2.2140     4.6880 ca         1 6DL       0.013600
      7 C15          0.1760     2.4110     5.7000 ca         1 6DL       0.155900
      8 C16         -0.5990     3.5630     5.7430 ca         1 6DL      -0.163000
      9 C19          1.3430     3.2190     3.7420 ca         1 6DL      -0.090000
     10 C4           1.2910    -0.0330     2.4380 ca         1 6DL      -0.147900
     11 C5          -0.1030     0.0230     2.4050 ca         1 6DL      -0.032000
     12 C6          -0.7230    -0.0020     1.1780 ca         1 6DL      -0.085900
     13 O7          -0.7020     0.0420    -1.1510 oh         1 6DL      -0.508100
     14 O8           3.3730    -0.0470     1.2710 oh         1 6DL      -0.497100
     15 N10          2.8530    -0.8720     4.1130 nd         1 6DL      -0.458300
     16 N11          3.3550    -0.4530     5.3480 ns         1 6DL      -0.328900
     17 N13          1.9410     1.0510     4.6850 n          1 6DL      -0.301500
     18 C17         -0.3900     4.5340     4.7710 ca         1 6DL      -0.096000
     19 C18          0.5670     4.3690     3.7710 ca         1 6DL      -0.142000
     20 O20          3.0260     1.3770     6.6820 o          1 6DL      -0.643500
     21 F21         -0.0220     1.4740     6.6440 f          1 6DL      -0.123900
     22 Br          -2.5880    -0.1770     1.0900 br         1 6DL      -0.059100
     23 H1           1.9530     0.0140    -0.9250 ha         1 6DL       0.162000
     24 H2          -1.3400     3.7060     6.5200 ha         1 6DL       0.158000
     25 H3           2.0820     3.0830     2.9620 ha         1 6DL       0.150000
     26 H4          -0.6830     0.0090     3.3210 ha         1 6DL       0.167000
     27 H5          -0.7130     0.9250    -1.4800 ho         1 6DL       0.434000
     28 H6           3.6800    -0.7290     0.6960 ho         1 6DL       0.437000
     29 H7           4.0350    -0.9440     5.8950 hn         1 6DL       0.390500
     30 H8          -0.9880     5.4370     4.7880 ha         1 6DL       0.138000
     31 H9           0.7190     5.1450     3.0310 ha         1 6DL       0.142000
@<TRIPOS>BOND
     1    16     5 1
     2    16    15 1
     3    20     5 2
     4     5    17 1
     5    15     4 2
     6    21     7 1
     7    17     4 1
     8    17     6 1
     9     4    10 1
    10     7     6 ar
    11     7     8 ar
    12     6     9 ar
    13    10    11 ar
    14    10     3 ar
    15     8    18 ar
    16    14     3 1
    17    11    12 ar
    18     3     2 ar
    19     9    19 ar
    20    18    19 ar
    21    12    22 1
    22    12     1 ar
    23     2     1 ar
    24     1    13 1
    25     2    23 1
    26     8    24 1
    27     9    25 1
    28    11    26 1
    29    13    27 1
    30    14    28 1
    31    16    29 1
    32    18    30 1
    33    19    31 1
@<TRIPOS>SUBSTRUCTURE
     1 6DL         1 TEMP              0 ****  ****    0 ROOT
