@<TRIPOS>MOLECULE
molecule
   45    46     1     0     0
SMALL
bcc


@<TRIPOS>ATOM
      1 C6'          0.0000     0.0000     0.0000 c3         1 6DM       0.148400
      2 O6'         -0.4760     1.2210     0.5680 os         1 6DM      -0.446600
      3 C5'          1.5310     0.0000     0.0000 c3         1 6DM       0.147100
      4 O5'          2.0070     0.0000     1.3470 os         1 6DM      -0.394600
      5 C4'          2.0410    -1.2510    -0.7200 c3         1 6DM       0.118100
      6 O4'          1.6140    -1.2240    -2.0840 oh         1 6DM      -0.607800
      7 C3'          3.5710    -1.2740    -0.6640 c3         1 6DM       0.134100
      8 O3'          4.0540    -2.4740    -1.2690 oh         1 6DM      -0.595800
      9 C2'          4.0180    -1.2230     0.8010 c3         1 6DM       0.100100
     10 O2'          3.5500    -2.3890     1.4830 oh         1 6DM      -0.574800
     11 C1'          3.4310     0.0260     1.4620 c3         1 6DM       0.322900
     12 O1'          3.9400     1.1930     0.8130 oh         1 6DM      -0.626800
     13 C1          -1.9010     1.3240     0.6140 c3         1 6DM       0.317900
     14 C2          -2.2980     2.7510     1.0020 c3         1 6DM       0.114100
     15 O2          -3.7220     2.8690     0.9980 oh         1 6DM      -0.577800
     16 C3          -1.7620     3.0590     2.4040 c3         1 6DM       0.132100
     17 O3          -2.1890     4.3640     2.8020 oh         1 6DM      -0.598800
     18 C4          -2.3070     2.0180     3.3860 c3         1 6DM       0.117100
     19 O4          -1.7570     2.2520     4.6840 oh         1 6DM      -0.607800
     20 C5          -1.9090     0.6190     2.9070 c3         1 6DM       0.146100
     21 O5          -2.4130     0.4090     1.5860 os         1 6DM      -0.411600
     22 C6          -2.5000    -0.4300     3.8510 c3         1 6DM       0.151400
     23 O6          -2.0360    -1.7280     3.4730 oh         1 6DM      -0.601800
     24 H1          -0.3610    -0.8360     0.5870 h1         1 6DM       0.052700
     25 H2          -0.3610    -0.0900    -1.0170 h1         1 6DM       0.052700
     26 H3           1.8960     0.8830    -0.5100 h1         1 6DM       0.071700
     27 H4           1.6490    -2.1340    -0.2300 h1         1 6DM       0.075700
     28 H5           1.2740    -2.0710    -2.3230 ho         1 6DM       0.413000
     29 H6           3.9640    -0.4130    -1.1910 h1         1 6DM       0.065700
     30 H7           4.7510    -2.2660    -1.8690 ho         1 6DM       0.403000
     31 H8           5.0990    -1.1800     0.8460 h1         1 6DM       0.043700
     32 H9           4.2450    -2.7420     2.0140 ho         1 6DM       0.403000
     33 H10          3.7060     0.0410     2.5090 h2         1 6DM       0.071700
     34 H11          4.3150     1.7710     1.4560 ho         1 6DM       0.415000
     35 H12         -2.3170     1.0870    -0.3570 h2         1 6DM       0.075700
     36 H13         -1.8700     3.4490     0.2920 h1         1 6DM       0.049700
     37 H14         -3.9970     3.3300     0.2240 ho         1 6DM       0.404000
     38 H15         -0.6800     3.0140     2.3950 h1         1 6DM       0.070700
     39 H16         -1.4510     4.9510     2.7990 ho         1 6DM       0.403000
     40 H17         -3.3870     2.0910     3.4270 h1         1 6DM       0.068700
     41 H18         -2.4040     2.6650     5.2310 ho         1 6DM       0.410000
     42 H19         -0.8290     0.5360     2.8980 h1         1 6DM       0.081700
     43 H20         -2.1890    -0.2170     4.8670 h1         1 6DM       0.034200
     44 H21         -3.5810    -0.4020     3.7910 h1         1 6DM       0.034200
     45 H22         -2.3230    -2.3620     4.1080 ho         1 6DM       0.399000
@<TRIPOS>BOND
     1    23    22 1
     2    15    14 1
     3    22    20 1
     4    21    13 1
     5    21    20 1
     6    18    20 1
     7    18    19 1
     8    18    16 1
     9    13    14 1
    10    13     2 1
    11    14    16 1
    12    17    16 1
    13     2     1 1
    14     1     3 1
    15     4     3 1
    16     4    11 1
    17    12    11 1
    18     3     5 1
    19    11     9 1
    20     5     6 1
    21     5     7 1
    22     9    10 1
    23     9     7 1
    24     7     8 1
    25     1    24 1
    26     1    25 1
    27     3    26 1
    28     5    27 1
    29     6    28 1
    30     7    29 1
    31     8    30 1
    32     9    31 1
    33    10    32 1
    34    11    33 1
    35    12    34 1
    36    13    35 1
    37    14    36 1
    38    15    37 1
    39    16    38 1
    40    17    39 1
    41    18    40 1
    42    19    41 1
    43    20    42 1
    44    22    43 1
    45    22    44 1
    46    23    45 1
@<TRIPOS>SUBSTRUCTURE
     1 6DM         1 TEMP              0 ****  ****    0 ROOT
