@<TRIPOS>MOLECULE
molecule
   29    28     1     0     0
SMALL
bcc


@<TRIPOS>ATOM
      1 O1           0.0000     0.0000     0.0000 o          1 6DN      -0.842800
      2 O2           1.9240     0.0000     1.0470 o          1 6DN      -0.842800
      3 CB           4.8950    -0.6160    -6.2830 c3         1 6DN      -0.095400
      4 CA           5.8370     0.0900    -7.2560 c3         1 6DN      -0.008500
      5 C            5.9810    -0.7220    -8.5100 c          1 6DN       0.860600
      6 O            7.0280    -1.5470    -8.5650 o          1 6DN      -0.789300
      7 N            5.2620     1.3290    -7.7680 nz         1 6DN      -0.787600
      8 CG           4.8160    -0.0430    -4.8450 c3         1 6DN      -0.085400
      9 CD           3.8340    -0.8330    -3.9490 c3         1 6DN      -0.079400
     10 CE           4.1940    -0.8010    -2.4660 c3         1 6DN       0.211800
     11 NZ           3.1000    -0.9540    -1.4840 n7         1 6DN      -0.881200
     12 CX1          2.0160     0.0110    -1.3180 c3         1 6DN       0.076800
     13 CX2          1.2670     0.0000     0.0000 c          1 6DN       0.912600
     14 OXT          5.1780    -0.5450    -9.4480 o          1 6DN      -0.789300
     15 HB2          3.8980    -0.5900    -6.7060 hc         1 6DN       0.077700
     16 HB3          5.2030    -1.6520    -6.2120 hc         1 6DN       0.077700
     17 HA           6.8030     0.2710    -6.8000 hx         1 6DN       0.109700
     18 H            5.2510     2.0160    -7.0410 hn         1 6DN       0.437800
     19 H2           5.8150     1.6620    -8.5330 hn         1 6DN       0.437800
     20 HG2          5.8020    -0.0780    -4.4000 hc         1 6DN       0.028200
     21 HG3          4.4900     0.9890    -4.8960 hc         1 6DN       0.028200
     22 HD2          2.8420    -0.4160    -4.0720 hc         1 6DN       0.051200
     23 HD3          3.8200    -1.8650    -4.2780 hc         1 6DN       0.051200
     24 HE2          4.6840     0.1450    -2.2670 h1         1 6DN       0.005700
     25 HE3          4.9110    -1.5920    -2.2850 h1         1 6DN       0.005700
     26 HZ1          3.4850    -1.1810    -0.5890 hn         1 6DN       0.385800
     27 H16          1.2960    -0.1610    -2.1090 h1         1 6DN       0.003200
     28 H17          2.4310     1.0020    -1.4540 h1         1 6DN       0.003200
     29 HN3          4.3240     1.1610    -8.0710 hn         1 6DN       0.437800
@<TRIPOS>BOND
     1     2    13 1
     2    11    10 1
     3    11    12 1
     4    13     1 1
     5    13    12 1
     6    10     9 1
     7     9     8 1
     8     8     3 1
     9     3     4 1
    10     4     5 1
    11     4     7 1
    12     5     6 1
    13     5    14 1
    14     3    15 1
    15     3    16 1
    16     4    17 1
    17     7    18 1
    18     7    19 1
    19     8    20 1
    20     8    21 1
    21     9    22 1
    22     9    23 1
    23    10    24 1
    24    10    25 1
    25    11    26 1
    26    12    27 1
    27    12    28 1
    28    29     7 1
@<TRIPOS>SUBSTRUCTURE
     1 6DN         1 TEMP              0 ****  ****    0 ROOT
