@<TRIPOS>MOLECULE
6DN
   29    28     1     0     0
SMALL
bcc


@<TRIPOS>ATOM
      1 O1           0.0000     0.0000     0.0000 o          1 6DN      -0.895300
      2 O2           1.9240     0.0000     1.0470 o          1 6DN      -0.895300
      3 CB           4.8950    -0.6160    -6.2830 c3         1 6DN      -0.027400
      4 CA           5.8370     0.0900    -7.2560 c3         1 6DN      -0.190500
      5 C            5.9810    -0.7220    -8.5100 c          1 6DN       0.946600
      6 O            7.0280    -1.5470    -8.5650 o          1 6DN      -0.829300
      7 N            5.2620     1.3290    -7.7680 nz         1 6DN       0.077400
      8 CG           4.8160    -0.0430    -4.8450 c3         1 6DN      -0.023400
      9 CD           3.8340    -0.8330    -3.9490 c3         1 6DN      -0.027400
     10 CE           4.1940    -0.8010    -2.4660 c3         1 6DN       0.179800
     11 NZ           3.1000    -0.9540    -1.4840 n7         1 6DN      -0.604200
     12 CX1          2.0160     0.0110    -1.3180 c3         1 6DN       0.040800
     13 CX2          1.2670     0.0000     0.0000 c          1 6DN       1.005600
     14 OXT          5.1780    -0.5450    -9.4480 o          1 6DN      -0.829300
     15 HB2          3.8980    -0.5900    -6.7060 hc         1 6DN       0.046200
     16 HB3          5.2030    -1.6520    -6.2120 hc         1 6DN       0.046200
     17 HA           6.8030     0.2710    -6.8000 hx         1 6DN       0.091700
     18 H            5.2510     2.0160    -7.0410 hn         1 6DN       0.211800
     19 H2           5.8150     1.6620    -8.5330 hn         1 6DN       0.211800
     20 HG2          5.8020    -0.0780    -4.4000 hc         1 6DN       0.000200
     21 HG3          4.4900     0.9890    -4.8960 hc         1 6DN       0.000200
     22 HD2          2.8420    -0.4160    -4.0720 hc         1 6DN       0.021700
     23 HD3          3.8200    -1.8650    -4.2780 hc         1 6DN       0.021700
     24 HE2          4.6840     0.1450    -2.2670 h1         1 6DN      -0.017800
     25 HE3          4.9110    -1.5920    -2.2850 h1         1 6DN      -0.017800
     26 HZ1          3.4850    -1.1810    -0.5890 hn         1 6DN       0.275800
     27 H16          1.2960    -0.1610    -2.1090 h1         1 6DN      -0.016300
     28 H17          2.4310     1.0020    -1.4540 h1         1 6DN      -0.016300
     29 HN3          4.3240     1.1610    -8.0710 hn         1 6DN       0.211800
@<TRIPOS>BOND
     1     1    13 1   
     2     2    13 1   
     3     3     4 1   
     4     3     8 1   
     5     3    15 1   
     6     3    16 1   
     7     4     5 1   
     8     4     7 1   
     9     4    17 1   
    10     5     6 1   
    11     5    14 1   
    12     7    18 1   
    13     7    19 1   
    14     7    29 1   
    15     8     9 1   
    16     8    20 1   
    17     8    21 1   
    18     9    10 1   
    19     9    22 1   
    20     9    23 1   
    21    10    11 1   
    22    10    24 1   
    23    10    25 1   
    24    11    12 1   
    25    11    26 1   
    26    12    13 1   
    27    12    27 1   
    28    12    28 1   
@<TRIPOS>SUBSTRUCTURE
     1 6DN         1 TEMP              0 ****  ****    0 ROOT
