@<TRIPOS>MOLECULE
6DP
   23    24     1     0     0
SMALL
bcc


@<TRIPOS>ATOM
      1 C1           0.0000     0.0000     0.0000 ca         1 6DP      -0.299900
      2 C2           1.4070     0.0000     0.0000 ca         1 6DP      -0.164200
      3 C3          -0.4120    -0.0000    -1.3530 cc         1 6DP       0.439800
      4 C4           2.0980     0.0000     1.2100 ca         1 6DP      -0.150000
      5 C5           1.4050     0.0010     2.3990 ca         1 6DP      -0.021000
      6 C6           0.0180     0.0010     2.4100 ca         1 6DP      -0.232000
      7 O1          -2.3940     0.2970     3.6380 o          1 6DP      -0.582300
      8 S           -2.8990     0.8340     2.4240 s6         1 6DP       0.952900
      9 O           -4.2690     0.6910     2.0720 o          1 6DP      -0.582300
     10 C7          -2.3660     2.5560     2.2190 c3         1 6DP       0.014700
     11 C           -0.6920     0.0070     1.2250 ca         1 6DP       0.144600
     12 N1           1.7980    -0.0020    -1.3150 na         1 6DP       0.418900
     13 N2           0.6460    -0.0020    -2.1110 nd         1 6DP      -0.641100
     14 H1          -1.4380     0.0000    -1.7010 h4         1 6DP       0.009800
     15 H2           3.1820    -0.0000     1.2140 ha         1 6DP       0.106000
     16 H3           1.9490    -0.0030     3.3360 ha         1 6DP       0.104000
     17 H4          -0.5120     0.0020     3.3550 ha         1 6DP       0.178000
     18 H5          -1.4400     2.7140     2.7580 h1         1 6DP       0.066700
     19 H6          -3.1290     3.2190     2.6100 h1         1 6DP       0.066700
     20 H7          -2.2130     2.7640     1.1670 h1         1 6DP       0.066700
     21 H8          -2.5950    -0.5240     0.5630 hn         1 6DP       0.352800
     22 H9           2.7430    -0.0030    -1.6470 hn         1 6DP       0.154700
     23 N           -2.0860     0.0070     1.2420 nu         1 6DP      -0.401500
@<TRIPOS>BOND
     1     1     2 ar  
     2     1     3 1   
     3     1    11 ar  
     4     2     4 ar  
     5     2    12 1   
     6     3    13 2   
     7     3    14 1   
     8     4     5 ar  
     9     4    15 1   
    10     5     6 ar  
    11     5    16 1   
    12     6    11 ar  
    13     6    17 1   
    14     7     8 2   
    15     8     9 2   
    16     8    10 1   
    17     8    23 1   
    18    10    18 1   
    19    10    19 1   
    20    10    20 1   
    21    11    23 1   
    22    12    13 1   
    23    12    22 1   
    24    21    23 1   
@<TRIPOS>SUBSTRUCTURE
     1 6DP         1 TEMP              0 ****  ****    0 ROOT
