@<TRIPOS>MOLECULE
molecule
   23    24     1     0     0
SMALL
bcc


@<TRIPOS>ATOM
      1 C1           0.0000     0.0000     0.0000 ca         1 6DP      -0.278900
      2 C2           1.4070     0.0000     0.0000 ca         1 6DP      -0.002200
      3 C3          -0.4120    -0.0000    -1.3530 cc         1 6DP       0.380800
      4 C4           2.0980     0.0000     1.2100 ca         1 6DP      -0.178000
      5 C5           1.4050     0.0010     2.3990 ca         1 6DP      -0.056000
      6 C6           0.0180     0.0010     2.4100 ca         1 6DP      -0.229000
      7 O1          -2.3940     0.2970     3.6380 o          1 6DP      -0.624300
      8 S           -2.8990     0.8340     2.4240 s6         1 6DP       1.324900
      9 O           -4.2690     0.6910     2.0720 o          1 6DP      -0.624300
     10 C7          -2.3660     2.5560     2.2190 c3         1 6DP      -0.242300
     11 C           -0.6920     0.0070     1.2250 ca         1 6DP       0.211600
     12 N1           1.7980    -0.0020    -1.3150 na         1 6DP      -0.049100
     13 N2           0.6460    -0.0020    -2.1110 nd         1 6DP      -0.500100
     14 H1          -1.4380     0.0000    -1.7010 h4         1 6DP       0.057800
     15 H2           3.1820    -0.0000     1.2140 ha         1 6DP       0.133000
     16 H3           1.9490    -0.0030     3.3360 ha         1 6DP       0.141000
     17 H4          -0.5120     0.0020     3.3550 ha         1 6DP       0.186000
     18 H5          -1.4400     2.7140     2.7580 h1         1 6DP       0.102367
     19 H6          -3.1290     3.2190     2.6100 h1         1 6DP       0.102367
     20 H7          -2.2130     2.7640     1.1670 h1         1 6DP       0.102367
     21 H8          -2.5950    -0.5240     0.5630 hn         1 6DP       0.468800
     22 H9           2.7430    -0.0030    -1.6470 hn         1 6DP       0.336700
     23 N           -2.0860     0.0070     1.2420 nu         1 6DP      -0.763500
@<TRIPOS>BOND
     1     7     8 2   
     2    23     8 1   
     3    23    11 1   
     4     8     9 2   
     5     8    10 1   
     6    11     6 ar  
     7    11     1 ar  
     8     6     5 ar  
     9     1     3 1   
    10     1     2 ar  
    11     5     4 ar  
    12     3    13 2   
    13     2     4 ar  
    14     2    12 1   
    15    13    12 1   
    16     3    14 1   
    17     4    15 1   
    18     5    16 1   
    19     6    17 1   
    20    10    18 1   
    21    10    19 1   
    22    10    20 1   
    23    23    21 1   
    24    12    22 1   
@<TRIPOS>SUBSTRUCTURE
     1 6DP         1 TEMP              0 ****  ****    0 ROOT
