@<TRIPOS>MOLECULE
6DQ
   25    27     1     0     0
SMALL
bcc


@<TRIPOS>ATOM
      1 C4           0.0000     0.0000     0.0000 ca         1 6DQ      -0.009000
      2 C6           1.3690     0.0010     2.4380 ca         1 6DQ      -0.071000
      3 C10          4.4220    -0.0000    -0.5340 cc         1 6DQ       0.612800
      4 C13          6.2700     0.0010    -2.2170 ca         1 6DQ      -0.005000
      5 C15          7.6270     0.0020    -2.4850 ca         1 6DQ      -0.235300
      6 C17          8.5260    -0.0040    -1.4340 ca         1 6DQ       0.434200
      7 C1           1.3990     0.0000     0.0000 ca         1 6DQ      -0.185600
      8 C2           2.0580     0.0000     1.2500 ca         1 6DQ       0.094900
      9 C3           2.1650    -0.0000    -1.2430 c          1 6DQ       0.692100
     10 S5           3.8310    -0.0000     1.1520 ss         1 6DQ      -0.317100
     11 N7           3.4610    -0.0000    -1.4540 nd         1 6DQ      -0.574100
     12 O8           1.4860    -0.0010    -2.2560 o          1 6DQ      -0.552100
     13 C9          -0.6840     0.0060     1.1940 ca         1 6DQ      -0.113000
     14 C11         -0.0150     0.0130     2.4090 ca         1 6DQ      -0.059000
     15 C12          5.8590    -0.0010    -0.8790 ca         1 6DQ      -0.271200
     16 C14          6.8290    -0.0010     0.1250 ca         1 6DQ       0.441200
     17 N16          8.1100    -0.0100    -0.1820 nb         1 6DQ      -0.588000
     18 H1          -0.5430    -0.0050    -0.9370 ha         1 6DQ       0.131000
     19 H2           1.9000     0.0060     3.3830 ha         1 6DQ       0.123000
     20 H4           7.9830     0.0050    -3.5090 ha         1 6DQ       0.120000
     21 H5           9.5890    -0.0070    -1.6410 h4         1 6DQ      -0.018900
     22 H6          -1.7670     0.0150     1.1850 ha         1 6DQ       0.110000
     23 H7          -0.5760     0.0180     3.3360 ha         1 6DQ       0.109000
     24 H8           6.5260    -0.0060     1.1650 h4         1 6DQ      -0.003900
     25 H3           5.5450     0.0050    -3.0210 ha         1 6DQ       0.136000
@<TRIPOS>BOND
     1     1     7 ar  
     2     1    13 ar  
     3     1    18 1   
     4     2     8 ar  
     5     2    14 ar  
     6     2    19 1   
     7     3    10 1   
     8     3    11 2   
     9     3    15 1   
    10     4     5 ar  
    11     4    15 ar  
    12     4    25 1   
    13     5     6 ar  
    14     5    20 1   
    15     6    17 ar  
    16     6    21 1   
    17     7     8 ar  
    18     7     9 1   
    19     8    10 1   
    20     9    11 1   
    21     9    12 2   
    22    13    14 ar  
    23    13    22 1   
    24    14    23 1   
    25    15    16 ar  
    26    16    17 ar  
    27    16    24 1   
@<TRIPOS>SUBSTRUCTURE
     1 6DQ         1 TEMP              0 ****  ****    0 ROOT
