@<TRIPOS>MOLECULE
molecule
   48    50     1     0     0
SMALL
bcc


@<TRIPOS>ATOM
      1 N1           0.0000     0.0000     0.0000 nb         1 6DR      -0.861000
      2 C2           1.3240     0.0000     0.0000 ca         1 6DR       0.969900
      3 N3           2.0260     0.0000     1.1250 nb         1 6DR      -0.791000
      4 C4           1.4270     0.0020     2.3040 ca         1 6DR       0.566600
      5 C5           0.0320     0.0020     2.3570 ca         1 6DR      -0.345600
      6 C6          -0.6800     0.0020     1.1410 ca         1 6DR       0.776200
      7 CAA          2.5160     1.4430     4.0020 c3         1 6DR       0.034900
      8 CAB         -4.5890     1.7010     3.4780 c3         1 6DR       0.107700
      9 NAC          1.9960    -0.0020    -1.2090 nv         1 6DR      -1.006500
     10 NAD         -2.0630     0.0030     1.1360 nv         1 6DR      -0.998500
     11 CAE         -1.2020     0.0040     4.6510 c1         1 6DR      -0.182100
     12 CAF         -0.6560     0.0040     3.6120 cg         1 6DR      -0.106000
     13 CAG         -1.9630     4.6960    11.3770 ca         1 6DR       0.362200
     14 CAH         -3.9130     3.4320    11.5540 ca         1 6DR       0.362200
     15 CAI         -1.8510     4.2330    10.2950 ca         1 6DR      -0.218300
     16 CAJ         -3.9240     2.8700    10.4470 ca         1 6DR      -0.218300
     17 CAK         -3.7960     3.6510     6.8240 ca         1 6DR      -0.083000
     18 CAL         -3.7400     3.2830     5.6950 ca         1 6DR      -0.171000
     19 CAM         -2.2910     2.0500     7.4980 ca         1 6DR      -0.105000
     20 CAN          2.2390     0.0010     3.5730 c3         1 6DR      -0.502700
     21 CAO         -2.5290    -0.0540     5.6740 c3         1 6DR       0.077000
     22 NAP         -3.2160     4.2990    12.3210 nb         1 6DR      -0.600000
     23 OAS         -3.1190     1.8330     3.6840 os         1 6DR      -0.302900
     24 CAV         -2.5660     3.4460     9.7140 cp         1 6DR       0.012000
     25 CAW         -2.9270     2.9030     7.8750 cp         1 6DR      -0.027000
     26 CAX         -2.1750     1.5330     6.0710 ca         1 6DR      -0.065300
     27 CAZ         -2.9360     2.1650     5.0660 ca         1 6DR       0.094100
     28 HAA          1.5780     1.9470     4.2030 hc         1 6DR       0.053367
     29 HAAA         3.0410     1.9610     3.2080 hc         1 6DR       0.053367
     30 HAAB         3.1250     1.4430     4.8980 hc         1 6DR       0.053367
     31 HAB         -5.0500     1.3400     4.3900 h1         1 6DR       0.044700
     32 HABA        -5.0050     2.6680     3.2210 h1         1 6DR       0.044700
     33 HABB        -4.7800     1.0000     2.6750 h1         1 6DR       0.044700
     34 HNAC         2.8820     0.4570    -1.2900 hn         1 6DR       0.446300
     35 HNAA         1.6050    -0.4780    -1.9980 hn         1 6DR       0.446300
     36 HNAD        -2.5590     0.3130     0.3240 hn         1 6DR       0.442300
     37 HNAB        -2.5650    -0.2370     1.9670 hn         1 6DR       0.442300
     38 HAG         -1.1710     5.3120    11.7860 h4         1 6DR      -0.005900
     39 HAH         -4.7660     3.0940    12.1300 h4         1 6DR      -0.005900
     40 HAI         -0.9600     4.5530     9.7680 ha         1 6DR       0.151000
     41 HAJ         -4.6000     2.0980    10.0970 ha         1 6DR       0.151000
     42 HAK         -4.4360     4.4760     7.1110 ha         1 6DR       0.143000
     43 HAL         -4.3670     3.8360     5.0060 ha         1 6DR       0.119000
     44 HAM         -1.6820     1.5360     8.2310 ha         1 6DR       0.134000
     45 HAN          2.1330     0.9570     4.0710 hc         1 6DR       0.160700
     46 HANA         1.8860    -0.7870     4.2280 hc         1 6DR       0.160700
     47 HAO         -3.3760    -0.3600     5.0710 hc         1 6DR       0.070700
     48 HAOA        -2.3390    -0.8480     6.3870 hc         1 6DR       0.070700
@<TRIPOS>BOND
     1     2     1 ar  
     2     6     1 ar  
     3     3     2 ar  
     4     2     9 1   
     5     4     3 ar  
     6    20     4 1   
     7     4     5 ar  
     8    12     5 1   
     9     5     6 ar  
    10     6    10 1   
    11     7    20 1   
    12     7    28 1   
    13     7    29 1   
    14     7    30 1   
    15    23     8 1   
    16     8    31 1   
    17     8    32 1   
    18     8    33 1   
    19     9    34 1   
    20     9    35 1   
    21    10    36 1   
    22    10    37 1   
    23    21    11 1   
    24    11    12 3   
    25    15    13 ar  
    26    13    22 ar  
    27    13    38 1   
    28    22    14 ar  
    29    16    14 ar  
    30    14    39 1   
    31    15    24 ar  
    32    15    40 1   
    33    24    16 ar  
    34    16    41 1   
    35    18    17 ar  
    36    17    25 ar  
    37    17    42 1   
    38    18    27 ar  
    39    18    43 1   
    40    25    19 ar  
    41    26    19 ar  
    42    19    44 1   
    43    20    45 1   
    44    20    46 1   
    45    26    21 1   
    46    21    47 1   
    47    21    48 1   
    48    23    27 1   
    49    25    24 1   
    50    27    26 ar  
@<TRIPOS>SUBSTRUCTURE
     1 6DR         1 TEMP              0 ****  ****    0 ROOT
