@<TRIPOS>MOLECULE
6DR
   48    50     1     0     0
SMALL
bcc


@<TRIPOS>ATOM
      1 N1          0.7640    0.7320   -0.5310 n2        1 6DR     -0.353000
      2 C2          1.6950   -0.2390   -0.2360 c2        1 6DR      0.259000
      3 N3          1.8420   -0.8910    1.0070 n2        1 6DR     -0.283000
      4 C4          1.0080   -0.5330    1.9800 c2        1 6DR      0.147000
      5 C5         -0.0250    0.4670    1.8180 c2        1 6DR     -0.210000
      6 C6         -0.0910    1.0860    0.4850 c2        1 6DR      0.274000
      7 CAA         2.4560   -0.8620    3.9860 c3        1 6DR     -0.205000
      8 CAB        -4.4350    3.9420    5.9160 c3        1 6DR     -0.072000
      9 NAC         2.5610   -0.6140   -1.2360 nh        1 6DR     -0.340000
     10 NAD        -1.0300    2.0390    0.2490 nh        1 6DR     -0.319000
     11 CAE        -1.3890    0.7910    3.9740 c1        1 6DR     -0.047000
     12 CAF        -0.9110    0.8780    2.7510 c1        1 6DR     -0.192000
     13 CAG        -3.3390   -4.5920    8.2610 c2        1 6DR     -0.073500
     14 CAH        -4.2820   -3.6830   10.1490 c2        1 6DR     -0.073500
     15 CAI        -3.2860   -3.3420    7.6200 c2        1 6DR     -0.174500
     16 CAJ        -4.2760   -2.3900    9.5960 c2        1 6DR     -0.174500
     17 CAK        -4.8810   -0.0190    7.8470 c2        1 6DR     -0.115000
     18 CAL        -4.9510    1.1610    7.2170 c2        1 6DR     -0.177000
     19 CAM        -2.6620   -0.4720    6.9680 c2        1 6DR     -0.109000
     20 CAN         1.1530   -1.2200    3.3140 c3        1 6DR     -0.138000
     21 CAO        -2.5590    0.8840    6.3500 c3        1 6DR      0.048000
     22 NAP        -3.8260   -4.7740    9.5040 n2        1 6DR     -0.140000
     23 OAS        -3.5820    3.0110    6.5560 os        1 6DR     -0.274000
     24 CAV        -3.7660   -2.2130    8.3010 c2        1 6DR      0.009000
     25 CAW        -3.7300   -0.8920    7.6770 c2        1 6DR     -0.068000
     26 CAX        -1.9230    0.8150    5.0710 c1        1 6DR     -0.216000
     27 CAZ        -3.9050    1.6430    6.2660 c3        1 6DR      0.057000
     28 HAA         3.3280   -1.2110    3.3820 hc        1 6DR      0.081667
     29 HAAA        2.5040   -1.3490    4.9900 hc        1 6DR      0.081667
     30 HAAB        2.5400    0.2420    4.1250 hc        1 6DR      0.081667
     31 HAB        -5.4960    3.7980    6.2370 h1        1 6DR      0.072000
     32 HABA       -4.0570    4.9400    6.2530 h1        1 6DR      0.072000
     33 HABB       -4.3580    3.8510    4.8040 h1        1 6DR      0.072000
     34 HNAC        2.5030   -0.1890   -2.1290 hn        1 6DR      0.250000
     35 HNAA        3.2450   -1.3080   -1.0630 hn        1 6DR      0.250000
     36 HNAD       -1.1120    2.4860   -0.6300 hn        1 6DR      0.256000
     37 HNAB       -1.6380    2.2830    1.0020 hn        1 6DR      0.256000
     38 HAG        -2.9710   -5.5010    7.7520 h4        1 6DR      0.158000
     39 HAH        -4.6730   -3.8570   11.1670 h4        1 6DR      0.158000
     40 HAI        -2.8820   -3.2540    6.6020 ha        1 6DR      0.146500
     41 HAJ        -4.6550   -1.5380   10.1740 ha        1 6DR      0.146500
     42 HAK        -5.6890   -0.3710    8.5070 ha        1 6DR      0.134000
     43 HAL        -5.8060    1.8400    7.3540 ha        1 6DR      0.132000
     44 HAM        -1.7730   -1.1100    6.8370 ha        1 6DR      0.139000
     45 HAN         1.0980   -2.3320    3.1620 hc        1 6DR      0.112000
     46 HANA        0.2930   -0.9280    3.9750 hc        1 6DR      0.112000
     47 HAO        -4.3170    1.5610    5.2180 h1        1 6DR      0.101000
     48 HAOA       -1.8760    1.5010    7.0250 hc        1 6DR      0.150000
@<TRIPOS>BOND
     1    1    2 1   
     2    1    6 1   
     3    2    3 1   
     4    2    9 1   
     5    3    4 1   
     6    4    5 1   
     7    4   20 1   
     8    5    6 1   
     9    5   12 1   
    10    6   10 1   
    11    7   20 1   
    12    7   28 1   
    13    7   29 1   
    14    7   30 1   
    15    8   23 1   
    16    8   31 1   
    17    8   32 1   
    18    8   33 1   
    19    9   34 1   
    20    9   35 1   
    21   10   36 1   
    22   10   37 1   
    23   11   12 1   
    24   11   26 1   
    25   13   15 1   
    26   13   22 1   
    27   13   38 1   
    28   14   16 1   
    29   14   22 1   
    30   14   39 1   
    31   15   24 1   
    32   15   40 1   
    33   16   24 1   
    34   16   41 1   
    35   17   18 1   
    36   17   25 1   
    37   17   42 1   
    38   18   27 1   
    39   18   43 1   
    40   19   21 1   
    41   19   25 1   
    42   19   44 1   
    43   20   45 1   
    44   20   46 1   
    45   21   26 1   
    46   21   27 1   
    47   21   48 1   
    48   23   27 1   
    49   24   25 1   
    50   27   47 1   
@<TRIPOS>SUBSTRUCTURE
     1 6DR         1 TEMP              0 ****  ****    0 ROOT
