@<TRIPOS>MOLECULE
molecule
   73    74     1     0     0
SMALL
bcc


@<TRIPOS>ATOM
      1 C1           0.0000     0.0000     0.0000 ca         1 6DS       0.159100
      2 O1          -2.3490    -1.2230    -3.1720 oh         1 6DS      -0.602800
      3 C2           1.3880     0.0000     0.0000 ca         1 6DS      -0.122300
      4 O2          -7.0140     0.4950    -4.8930 o          1 6DS      -0.853800
      5 C3           2.0770     0.0000     1.1970 ca         1 6DS      -0.097000
      6 C4           1.3850     0.0000     2.3950 ca         1 6DS      -0.132300
      7 C5           0.0020    -0.0010     2.3960 ca         1 6DS      -0.099000
      8 C6          -0.6910     0.0050     1.2030 ca         1 6DS      -0.221000
      9 C7           0.3720     4.4170     6.9370 ce         1 6DS      -0.011200
     10 C8          -0.4440     7.8040     6.6340 c3         1 6DS       0.593900
     11 C9           2.1330     2.4230     8.0750 c3         1 6DS      -0.050800
     12 C10          2.1400     0.0000     3.6990 c3         1 6DS       0.036600
     13 C11          1.6770     1.1570     4.5470 ca         1 6DS      -0.041300
     14 C12          1.8780    -1.3130     4.4400 c3         1 6DS      -0.068900
     15 C13          3.6380     0.1390     3.4210 c3         1 6DS      -0.068900
     16 C14          3.9120     1.4950     2.7670 c3         1 6DS      -0.099600
     17 C16         -6.2910     0.3720    -3.7690 c          1 6DS       0.893600
     18 C17         -4.7910     0.2490    -3.8470 c3         1 6DS      -0.183400
     19 C20          0.4040    -1.3860     4.8420 c3         1 6DS      -0.099600
     20 C26          2.0960     1.2590     5.8610 ca         1 6DS      -0.132000
     21 C27          1.6760     2.3150     6.6430 ca         1 6DS      -0.058300
     22 C28          0.8260     3.2810     6.1050 ca         1 6DS      -0.094800
     23 C29          0.4080     3.1740     4.7790 ca         1 6DS      -0.102000
     24 C30          0.8390     2.1160     4.0060 ca         1 6DS      -0.134000
     25 C34          2.1420    -0.0010    -1.3050 c3         1 6DS      -0.032800
     26 C43         -0.4350     5.3340     6.4230 c2         1 6DS      -0.235200
     27 C44         -0.8990     6.4890     7.2710 c3         1 6DS       0.114000
     28 O47         -0.3380     6.3750     8.5800 oh         1 6DS      -0.558800
     29 C48         -2.4260     6.4710     7.3670 c3         1 6DS       0.593900
     30 O62         -0.6800    -0.0010    -1.1770 os         1 6DS      -0.325900
     31 C63         -2.1070    -0.0010    -1.1010 c3         1 6DS       0.120400
     32 C64         -2.6940    -0.0020    -2.5140 c3         1 6DS       0.142100
     33 C67         -4.2160     0.1240    -2.4350 c3         1 6DS      -0.074400
     34 O71         -6.8430     0.3610    -2.6940 o          1 6DS      -0.853800
     35 F2          -0.8750     8.8780     7.4210 f          1 6DS      -0.209967
     36 F1           0.9530     7.8210     6.5460 f          1 6DS      -0.209967
     37 F3          -0.9940     7.9160     5.3520 f          1 6DS      -0.209967
     38 F6          -2.8420     5.2700     7.9510 f          1 6DS      -0.209967
     39 F5          -2.8560     7.5450     8.1550 f          1 6DS      -0.209967
     40 F4          -2.9760     6.5840     6.0850 f          1 6DS      -0.209967
     41 H1          -1.9480    -1.0300    -4.0030 ho         1 6DS       0.398000
     42 H3           3.1610     0.0000     1.1980 ha         1 6DS       0.138000
     43 H4          -0.5370     0.0010     3.3360 ha         1 6DS       0.141000
     44 H5          -1.7740     0.0050     1.2050 ha         1 6DS       0.147000
     45 H6           0.6970     4.4980     7.9670 ha         1 6DS       0.152000
     46 H7           2.6720     3.3530     8.2130 hc         1 6DS       0.044367
     47 H8           1.2720     2.4040     8.7320 hc         1 6DS       0.044367
     48 H9           2.7850     1.5900     8.3100 hc         1 6DS       0.044367
     49 H10          2.1170    -2.1470     3.7920 hc         1 6DS       0.042450
     50 H11          2.4970    -1.3560     5.3280 hc         1 6DS       0.042450
     51 H12          4.1860     0.0700     4.3530 hc         1 6DS       0.042450
     52 H13          3.9570    -0.6540     2.7560 hc         1 6DS       0.042450
     53 H14          2.9840     1.9080     2.3900 hc         1 6DS       0.039200
     54 H15          4.6090     1.3660     1.9470 hc         1 6DS       0.039200
     55 H16          4.3370     2.1700     3.4990 hc         1 6DS       0.039200
     56 H17         -4.5310    -0.6310    -4.4230 hc         1 6DS       0.031200
     57 H18         -4.3810     1.1290    -4.3280 hc         1 6DS       0.031200
     58 H19          0.0430    -0.3910     5.0750 hc         1 6DS       0.039200
     59 H20          0.2980    -2.0210     5.7130 hc         1 6DS       0.039200
     60 H21         -0.1740    -1.7970     4.0230 hc         1 6DS       0.039200
     61 H22          2.7620     0.5110     6.2750 ha         1 6DS       0.133000
     62 H23         -0.2490     3.9240     4.3540 ha         1 6DS       0.136000
     63 H24          0.5140     2.0310     2.9760 ha         1 6DS       0.161000
     64 H25          1.9080     0.9020    -1.8570 hc         1 6DS       0.041700
     65 H26          3.2060    -0.0380    -1.1070 hc         1 6DS       0.041700
     66 H27          1.8520    -0.8660    -1.8890 hc         1 6DS       0.041700
     67 H28         -0.7620     5.2520     5.3930 ha         1 6DS       0.168000
     68 H29         -0.6170     7.1060     9.1070 ho         1 6DS       0.426000
     69 H30         -2.4400    -0.8860    -0.5720 h1         1 6DS       0.045700
     70 H31         -2.4410     0.8830    -0.5710 h1         1 6DS       0.045700
     71 H32         -2.2910     0.8350    -3.0720 h1         1 6DS       0.033700
     72 H33         -4.4760     1.0040    -1.8600 hc         1 6DS       0.057200
     73 H34         -4.6260    -0.7560    -1.9550 hc         1 6DS       0.057200
@<TRIPOS>BOND
     1    19    14 1
     2    36    10 1
     3    35    10 1
     4    14    12 1
     5    10    37 1
     6    10    27 1
     7    24    23 ar
     8    24    13 ar
     9     7     8 ar
    10     7     6 ar
    11    23    22 ar
    12     8     1 ar
    13    12     6 1
    14    12    13 1
    15    12    15 1
    16     6     5 ar
    17    31    30 1
    18    31    32 1
    19    13    20 ar
    20    26    27 1
    21    26     9 2
    22     1    30 1
    23     1     3 ar
    24    22     9 1
    25    22    21 ar
    26    27    28 1
    27    27    29 1
    28    33    32 1
    29    33    18 1
    30     5     3 ar
    31    39    29 1
    32    32     2 1
    33    20    21 ar
    34     3    25 1
    35    21    11 1
    36    18    17 1
    37    15    16 1
    38    29    40 1
    39    29    38 1
    40    17    34 1
    41    17     4 1
    42     2    41 1
    43     5    42 1
    44     7    43 1
    45     8    44 1
    46     9    45 1
    47    11    46 1
    48    11    47 1
    49    11    48 1
    50    14    49 1
    51    14    50 1
    52    15    51 1
    53    15    52 1
    54    16    53 1
    55    16    54 1
    56    16    55 1
    57    18    56 1
    58    18    57 1
    59    19    58 1
    60    19    59 1
    61    19    60 1
    62    20    61 1
    63    23    62 1
    64    24    63 1
    65    25    64 1
    66    25    65 1
    67    25    66 1
    68    26    67 1
    69    28    68 1
    70    31    69 1
    71    31    70 1
    72    32    71 1
    73    33    72 1
    74    33    73 1
@<TRIPOS>SUBSTRUCTURE
     1 6DS         1 TEMP              0 ****  ****    0 ROOT
