@<TRIPOS>MOLECULE
6DS
   73    74     1     0     0
SMALL
bcc


@<TRIPOS>ATOM
      1 C1         -0.2210   -0.0280    0.1010 ca        1 6DS      0.145100
      2 O1         -2.7920   -1.6850   -2.5960 oh        1 6DS     -0.606800
      3 C2          1.1300   -0.4450    0.0640 ca        1 6DS     -0.118300
      4 O2         -6.5210    2.8420   -3.1970 o         1 6DS     -0.847300
      5 C3          1.9160   -0.2780    1.2020 ca        1 6DS     -0.103000
      6 C4          1.4060    0.2990    2.3730 ca        1 6DS     -0.120300
      7 C5          0.0600    0.6880    2.3890 ca        1 6DS     -0.095000
      8 C6         -0.7520    0.5350    1.2680 ca        1 6DS     -0.199000
      9 C7          1.2410    5.2000    6.7110 ce        1 6DS     -0.027200
     10 C8         -1.6850    5.8280    5.2440 c3        1 6DS      0.607400
     11 C9          2.0320    2.7800    8.0520 c3        1 6DS     -0.057800
     12 C10         2.2520    0.4170    3.6170 c3        1 6DS      0.052600
     13 C11         1.9090    1.6400    4.4370 ca        1 6DS     -0.042300
     14 C12         2.0660   -0.8930    4.4120 c3        1 6DS     -0.067900
     15 C13         3.7600    0.5160    3.3020 c3        1 6DS     -0.067900
     16 C14         4.1380    1.6700    2.4120 c3        1 6DS     -0.099600
     17 C16        -5.8480    2.1400   -2.3910 c         1 6DS      0.910600
     18 C17        -4.5040    1.5710   -2.8880 c3        1 6DS     -0.202400
     19 C20         0.6800   -1.0990    4.9630 c3        1 6DS     -0.099600
     20 C26         2.0860    1.6510    5.8260 ca        1 6DS     -0.133000
     21 C27         1.8390    2.8000    6.5830 ca        1 6DS     -0.059300
     22 C28         1.3980    3.9720    5.9430 ca        1 6DS     -0.108800
     23 C29         1.2250    3.9690    4.5550 ca        1 6DS     -0.105000
     24 C30         1.4860    2.8220    3.8110 ca        1 6DS     -0.122000
     25 C34         1.6840   -1.0430   -1.1710 c3        1 6DS     -0.036800
     26 C43         0.1580    5.9040    7.0440 c2        1 6DS     -0.200200
     27 C44        -1.2930    5.6770    6.7800 c3        1 6DS      0.153000
     28 O47        -1.9680    6.7070    7.4810 oh        1 6DS     -0.566800
     29 C48        -1.8380    4.3010    7.3620 c3        1 6DS      0.607400
     30 O62        -0.9270   -0.2190   -1.0630 os        1 6DS     -0.349900
     31 C63        -2.3300    0.0980   -1.0180 c3        1 6DS      0.086400
     32 C64        -2.8770   -0.2790   -2.3990 c3        1 6DS      0.140100
     33 C67        -4.3460    0.1200   -2.5040 c3        1 6DS     -0.066400
     34 O71        -6.1940    1.8970   -1.1990 o         1 6DS     -0.847300
     35 F2         -2.9350    6.3790    5.1060 f         1 6DS     -0.219633
     36 F1         -0.8570    6.6620    4.5430 f         1 6DS     -0.219633
     37 F3         -1.7260    4.6680    4.5270 f         1 6DS     -0.219633
     38 F6         -1.2620    3.9420    8.5500 f         1 6DS     -0.219633
     39 F5         -3.1810    4.3800    7.6430 f         1 6DS     -0.219633
     40 F4         -1.7100    3.2110    6.5510 f         1 6DS     -0.219633
     41 H1         -1.8670   -1.9230   -2.4630 ho        1 6DS      0.392000
     42 H3          2.9620   -0.6200    1.1630 ha        1 6DS      0.126000
     43 H4         -0.3740    1.1200    3.3050 ha        1 6DS      0.141000
     44 H5         -1.8020    0.8590    1.3100 ha        1 6DS      0.157000
     45 H6          2.2180    5.5920    7.0720 ha        1 6DS      0.136000
     46 H7          2.7500    3.5820    8.3610 hc        1 6DS      0.045367
     47 H8          2.4300    1.7960    8.3990 hc        1 6DS      0.045367
     48 H9          1.0560    2.9690    8.5690 hc        1 6DS      0.045367
     49 H10         2.8140   -0.9260    5.2470 hc        1 6DS      0.036950
     50 H11         2.3140   -1.7420    3.7190 hc        1 6DS      0.036950
     51 H12         4.0980   -0.4480    2.8370 hc        1 6DS      0.036950
     52 H13         4.3050    0.6130    4.2800 hc        1 6DS      0.036950
     53 H14         3.5950    1.6180    1.4360 hc        1 6DS      0.039200
     54 H15         3.8830    2.6440    2.8980 hc        1 6DS      0.039200
     55 H16         5.2360    1.6520    2.2100 hc        1 6DS      0.039200
     56 H17        -3.6930    2.1900   -2.4240 hc        1 6DS      0.022200
     57 H18        -4.4350    1.6930   -3.9970 hc        1 6DS      0.022200
     58 H19         0.3850   -0.2560    5.6340 hc        1 6DS      0.039200
     59 H20        -0.0680   -1.1630    4.1350 hc        1 6DS      0.039200
     60 H21         0.6410   -2.0500    5.5480 hc        1 6DS      0.039200
     61 H22         2.4290    0.7450    6.3470 ha        1 6DS      0.135000
     62 H23         0.8710    4.8800    4.0470 ha        1 6DS      0.141000
     63 H24         1.3560    2.8450    2.7160 ha        1 6DS      0.156000
     64 H25         2.7090   -1.4520   -1.0030 hc        1 6DS      0.041700
     65 H26         1.7310   -0.2710   -1.9800 hc        1 6DS      0.041700
     66 H27         1.0180   -1.8690   -1.5290 hc        1 6DS      0.041700
     67 H28         0.3040    6.8330    7.6350 ha        1 6DS      0.159000
     68 H29        -2.9210    6.6140    7.3220 ho        1 6DS      0.440000
     69 H30        -2.8250   -0.5070   -0.2160 h1        1 6DS      0.064700
     70 H31        -2.4680    1.1930   -0.8270 h1        1 6DS      0.064700
     71 H32        -2.2650    0.2370   -3.1920 h1        1 6DS      0.036700
     72 H33        -4.8390   -0.5390   -3.2650 hc        1 6DS      0.063700
     73 H34        -4.8590   -0.0610   -1.5210 hc        1 6DS      0.063700
@<TRIPOS>BOND
     1    1    3 ar  
     2    1    8 ar  
     3    1   30 1   
     4    2   32 1   
     5    2   41 1   
     6    3    5 ar  
     7    3   25 1   
     8    4   17 1   
     9    5    6 ar  
    10    5   42 1   
    11    6    7 ar  
    12    6   12 1   
    13    7    8 ar  
    14    7   43 1   
    15    8   44 1   
    16    9   22 1   
    17    9   26 2   
    18    9   45 1   
    19   10   27 1   
    20   10   35 1   
    21   10   36 1   
    22   10   37 1   
    23   11   21 1   
    24   11   46 1   
    25   11   47 1   
    26   11   48 1   
    27   12   13 1   
    28   12   14 1   
    29   12   15 1   
    30   13   20 ar  
    31   13   24 ar  
    32   14   19 1   
    33   14   49 1   
    34   14   50 1   
    35   15   16 1   
    36   15   51 1   
    37   15   52 1   
    38   16   53 1   
    39   16   54 1   
    40   16   55 1   
    41   17   18 1   
    42   17   34 1   
    43   18   33 1   
    44   18   56 1   
    45   18   57 1   
    46   19   58 1   
    47   19   59 1   
    48   19   60 1   
    49   20   21 ar  
    50   20   61 1   
    51   21   22 ar  
    52   22   23 ar  
    53   23   24 ar  
    54   23   62 1   
    55   24   63 1   
    56   25   64 1   
    57   25   65 1   
    58   25   66 1   
    59   26   27 1   
    60   26   67 1   
    61   27   28 1   
    62   27   29 1   
    63   28   68 1   
    64   29   38 1   
    65   29   39 1   
    66   29   40 1   
    67   30   31 1   
    68   31   32 1   
    69   31   69 1   
    70   31   70 1   
    71   32   33 1   
    72   32   71 1   
    73   33   72 1   
    74   33   73 1   
@<TRIPOS>SUBSTRUCTURE
     1 6DS         1 TEMP              0 ****  ****    0 ROOT
