@<TRIPOS>MOLECULE
molecule
   43    47     1     0     0
SMALL
bcc


@<TRIPOS>ATOM
      1 C20          0.0000     0.0000     0.0000 ca         1 6DT      -0.124000
      2 C21          1.3870     0.0000     0.0000 ca         1 6DT      -0.138000
      3 C19         -0.6990    -0.0000     1.1880 ca         1 6DT      -0.122000
      4 C22          2.0850     0.0000     1.1860 ca         1 6DT      -0.084000
      5 C11          2.1830     0.4730     7.7540 ca         1 6DT      -0.128000
      6 C13          3.0110    -0.9070     5.9660 ca         1 6DT      -0.128000
      7 C10          3.3880     0.3410     8.4140 ca         1 6DT      -0.115500
      8 C14          4.2210    -1.0290     6.6220 ca         1 6DT      -0.115500
      9 C4           8.1040    -1.0480    12.1060 cc         1 6DT      -0.330800
     10 C3           8.4280     0.0000    11.2920 cd         1 6DT      -0.121100
     11 C26          5.2820    -3.2040    11.2000 ca         1 6DT       0.672900
     12 C18         -0.0120    -0.0060     2.3930 ca         1 6DT      -0.097200
     13 C5           7.0260    -1.6920    11.5550 ca         1 6DT       0.465100
     14 C23          1.3930    -0.0010     2.4000 ca         1 6DT       0.119400
     15 C6           6.6950    -1.0500    10.4210 ca         1 6DT      -0.267800
     16 C12          1.9900    -0.1510     6.5280 ca         1 6DT       0.151600
     17 C9           4.4100    -0.4100     7.8500 ca         1 6DT       0.073100
     18 C7           5.6360    -1.4950     9.6650 ca         1 6DT       0.684600
     19 C16          0.7340    -0.0140     4.4790 cd         1 6DT       0.639700
     20 N27          6.3240    -2.7670    11.9460 nb         1 6DT      -0.709000
     21 N25          4.9450    -2.5560    10.0550 nb         1 6DT      -0.752000
     22 N17         -0.4030    -0.0080     3.7220 na         1 6DT      -0.290300
     23 N24          1.7860    -0.0010     3.7000 nc         1 6DT      -0.654100
     24 N2           7.5680     0.0050    10.2560 na         1 6DT      -0.023400
     25 N15          0.7680    -0.0180     5.8590 nu         1 6DT      -0.702600
     26 O8           5.5860    -0.5470     8.5170 os         1 6DT      -0.385400
     27 H1          -0.5420     0.0000    -0.9380 ha         1 6DT       0.132000
     28 H2           1.9290     0.0000    -0.9380 ha         1 6DT       0.133000
     29 H3          -1.7820    -0.0000     1.1790 ha         1 6DT       0.125000
     30 H4           3.1680    -0.0000     1.1770 ha         1 6DT       0.142000
     31 H5           1.3850     1.0590     8.1940 ha         1 6DT       0.153500
     32 H6           2.8630    -1.3900     5.0080 ha         1 6DT       0.153500
     33 H7           3.5380     0.8280     9.3700 ha         1 6DT       0.144500
     34 H8           5.0170    -1.6190     6.1840 ha         1 6DT       0.144500
     35 H9           8.6090    -1.3210    13.0240 ha         1 6DT       0.164000
     36 H10          9.2190     0.7200    11.4660 h4         1 6DT       0.177000
     37 H11          4.7150    -4.0710    11.5170 h5         1 6DT       0.072100
     38 H12          9.1770     0.6940     9.1340 h1         1 6DT       0.056033
     39 H13          7.9680     1.9180     9.5450 h1         1 6DT       0.056033
     40 H14          7.6170     0.7110     8.3010 h1         1 6DT       0.056033
     41 H15         -1.3460    -0.0040     4.0580 hn         1 6DT       0.300700
     42 H17         -0.0730    -0.3590     6.2800 hn         1 6DT       0.433800
     43 C1           8.1170     0.8870     9.2450 c3         1 6DT       0.038600
@<TRIPOS>BOND
     1     4     2 ar
     2     4    14 ar
     3     2     1 ar
     4    14    23 1
     5    14    12 ar
     6    23    19 2
     7     1     3 ar
     8    12     3 ar
     9    12    22 1
    10    19    25 1
    11    19    22 1
    12    25    16 1
    13    16     5 ar
    14    16     6 ar
    15     5     7 ar
    16     6     8 ar
    17     7    17 ar
    18     8    17 ar
    19    17    26 1
    20    26    18 1
    21    43    24 1
    22    18    21 ar
    23    18    15 ar
    24    21    11 ar
    25    24    15 1
    26    24    10 1
    27    15    13 ar
    28    11    20 ar
    29    10     9 2
    30    13    20 ar
    31    13     9 1
    32     1    27 1
    33     2    28 1
    34     3    29 1
    35     4    30 1
    36     5    31 1
    37     6    32 1
    38     7    33 1
    39     8    34 1
    40     9    35 1
    41    10    36 1
    42    11    37 1
    43    43    38 1
    44    43    39 1
    45    43    40 1
    46    22    41 1
    47    25    42 1
@<TRIPOS>SUBSTRUCTURE
     1 6DT         1 TEMP              0 ****  ****    0 ROOT
