@<TRIPOS>MOLECULE
molecule
   64    70     1     0     0
SMALL
bcc


@<TRIPOS>ATOM
      1 C12          0.0000     0.0000     0.0000 ca         1 6DW      -0.137000
      2 C34          1.7020     1.2980    11.6730 ca         1 6DW      -0.152000
      3 C35          0.9270     1.5070    12.8040 ca         1 6DW      -0.116000
      4 C11          1.3830     0.0000     0.0000 ca         1 6DW      -0.124000
      5 C13         -0.6940     0.0000     1.1960 ca         1 6DW      -0.124000
      6 C33          1.4110     1.9520    10.4960 ca         1 6DW      -0.056000
      7 C36         -0.1450     2.3740    12.7660 ca         1 6DW      -0.135000
      8 C10          2.0760     0.0000     1.1950 ca         1 6DW      -0.120500
      9 C14         -0.0070     0.0010     2.3940 ca         1 6DW      -0.120500
     10 C5           2.7240     0.4540     5.6730 cc         1 6DW      -0.297300
     11 C6           3.5760    -0.5150     5.1450 cc         1 6DW       0.329200
     12 C32          0.3250     2.8290    10.4390 ca         1 6DW       0.112400
     13 C37         -0.4510     3.0420    11.5900 ca         1 6DW      -0.061200
     14 C9           1.3810     0.0010     2.3980 ca         1 6DW       0.046800
     15 C4           1.7940     0.7660     4.7060 cd         1 6DW      -0.070200
     16 C30         -1.2520     4.2540     9.9100 cc         1 6DW       0.550700
     17 C21         -1.3330     3.5570     4.9950 cc         1 6DW      -0.094000
     18 C3           0.6920     1.7440     4.8300 cd         1 6DW       0.308900
     19 C22         -0.9970     2.9430     6.1630 cd         1 6DW      -0.000100
     20 C2           0.0530     1.9890     6.1300 c          1 6DW       0.465000
     21 C19         -0.6330     6.1750     1.3160 cx         1 6DW      -0.126900
     22 C20          0.6540     5.3520     1.2670 cx         1 6DW      -0.126900
     23 C28         -2.5820     4.7100    11.7440 c3         1 6DW       0.018300
     24 C27         -2.7930     5.7980    10.6670 c3         1 6DW       0.152800
     25 C18         -0.2760     5.2450     2.4760 cx         1 6DW      -0.171700
     26 C25         -3.2350     4.4710     8.6600 c3         1 6DW       0.170800
     27 C24         -2.6890     4.2090     7.2540 c3         1 6DW       0.130400
     28 N7           3.2000    -0.7830     3.9190 nd         1 6DW      -0.502800
     29 N31         -0.2030     3.5980     9.4530 nd         1 6DW      -0.545100
     30 N15          0.2670     2.4110     3.7790 nc         1 6DW      -0.382400
     31 N29         -1.4280     3.9540    11.2290 na         1 6DW      -0.208300
     32 N8           2.0800    -0.0000     3.6120 na         1 6DW       0.146300
     33 N26         -2.2100     5.1520     9.4630 nh         1 6DW      -0.638600
     34 N16         -0.6860     3.2650     3.8520 na         1 6DW      -0.247500
     35 O1           0.4090     1.3970     7.1390 o          1 6DW      -0.516100
     36 O23         -1.6470     3.2340     7.3220 os         1 6DW      -0.256900
     37 H1          -0.5410    -0.0000    -0.9390 ha         1 6DW       0.129000
     38 H3           1.1660     0.9860    13.7230 ha         1 6DW       0.129000
     39 H4           1.9240    -0.0000    -0.9390 ha         1 6DW       0.132000
     40 H5          -1.7770     0.0000     1.1930 ha         1 6DW       0.132000
     41 H6           2.0200     1.7840     9.6160 ha         1 6DW       0.152000
     42 H7          -0.7470     2.5330    13.6530 ha         1 6DW       0.123000
     43 H8           3.1590     0.0000     1.1950 ha         1 6DW       0.146000
     44 H9          -0.5520     0.0010     3.3300 ha         1 6DW       0.146000
     45 H10          2.7800     0.8810     6.6670 ha         1 6DW       0.176000
     46 H11          4.4140    -0.9670     5.6610 h4         1 6DW       0.049100
     47 H12         -2.1300     4.2910     4.9860 h4         1 6DW       0.159000
     48 H13         -1.4320     5.8320     0.6700 hc         1 6DW       0.078700
     49 H14         -0.5040     7.2340     1.5090 hc         1 6DW       0.078700
     50 H15          0.6420     4.5060     0.5910 hc         1 6DW       0.078700
     51 H16          1.5700     5.9070     1.4300 hc         1 6DW       0.078700
     52 H17         -2.3470     5.1610    12.7010 h1         1 6DW       0.062200
     53 H18         -2.2500     6.7010    10.9200 h1         1 6DW       0.074700
     54 H19          0.0800     5.7470     3.3670 hc         1 6DW       0.097700
     55 H22         -3.4950     3.5300     9.1280 h1         1 6DW       0.055700
     56 H23         -4.1170     5.0980     8.5940 h1         1 6DW       0.055700
     57 H24         -2.2960     5.1300     6.8420 h1         1 6DW       0.040700
     58 H25         -3.4870     3.8410     6.6200 h1         1 6DW       0.040700
     59 H26         -3.4540     4.0720    11.8170 h1         1 6DW       0.062200
     60 H27         -3.8480     5.9990    10.5230 h1         1 6DW       0.074700
     61 C17         -1.0920     3.9590     2.6280 c3         1 6DW       0.273800
     62 H2           2.5410     0.6140    11.7150 ha         1 6DW       0.132000
     63 H20         -0.9170     3.3170     1.7740 h1         1 6DW       0.071700
     64 H21         -2.1460     4.2050     2.6860 h1         1 6DW       0.071700
@<TRIPOS>BOND
     1     7     3 ar
     2     7    13 ar
     3     3     2 ar
     4    23    31 1
     5    23    24 1
     6    13    31 1
     7    13    12 ar
     8    31    16 1
     9    21    22 1
    10    21    25 1
    11    24    33 1
    12     2     6 ar
    13    22    25 1
    14    12     6 ar
    15    12    29 1
    16    16    33 1
    17    16    29 2
    18    33    26 1
    19    25    61 1
    20    61    34 1
    21    26    27 1
    22    27    36 1
    23    17    34 1
    24    17    19 2
    25    34    30 1
    26    36    19 1
    27    19    20 1
    28     1     5 ar
    29     1     4 ar
    30    30    18 2
    31     5     9 ar
    32     4     8 ar
    33    20    18 1
    34    20    35 2
    35    18    15 1
    36     9    14 ar
    37     8    14 ar
    38    14    32 1
    39    15    32 1
    40    15    10 2
    41    32    28 1
    42    10    11 1
    43    28    11 2
    44     1    37 1
    45     2    62 1
    46     3    38 1
    47     4    39 1
    48     5    40 1
    49     6    41 1
    50     7    42 1
    51     8    43 1
    52     9    44 1
    53    10    45 1
    54    11    46 1
    55    17    47 1
    56    21    48 1
    57    21    49 1
    58    22    50 1
    59    22    51 1
    60    23    52 1
    61    24    53 1
    62    25    54 1
    63    61    63 1
    64    61    64 1
    65    26    55 1
    66    26    56 1
    67    27    57 1
    68    27    58 1
    69    23    59 1
    70    24    60 1
@<TRIPOS>SUBSTRUCTURE
     1 6DW         1 TEMP              0 ****  ****    0 ROOT
