@<TRIPOS>MOLECULE
6DW
   64    70     1     0     0
SMALL
bcc


@<TRIPOS>ATOM
      1 C12          0.0000     0.0000     0.0000 ca         1 6DW      -0.101000
      2 C34          1.7020     1.2980    11.6730 ca         1 6DW      -0.128000
      3 C35          0.9270     1.5070    12.8040 ca         1 6DW      -0.088000
      4 C11          1.3830     0.0000     0.0000 ca         1 6DW      -0.098500
      5 C13         -0.6940     0.0000     1.1960 ca         1 6DW      -0.098500
      6 C33          1.4110     1.9520    10.4960 ca         1 6DW      -0.021000
      7 C36         -0.1450     2.3740    12.7660 ca         1 6DW      -0.103000
      8 C10          2.0760     0.0000     1.1950 ca         1 6DW      -0.087500
      9 C14         -0.0070     0.0010     2.3940 ca         1 6DW      -0.087500
     10 C5           2.7240     0.4540     5.6730 cc         1 6DW      -0.291300
     11 C6           3.5760    -0.5150     5.1450 cc         1 6DW       0.389200
     12 C32          0.3250     2.8290    10.4390 ca         1 6DW       0.075400
     13 C37         -0.4510     3.0420    11.5900 ca         1 6DW      -0.214200
     14 C9           1.3810     0.0010     2.3980 ca         1 6DW      -0.125200
     15 C4           1.7940     0.7660     4.7060 cd         1 6DW      -0.244200
     16 C30         -1.2520     4.2540     9.9100 cc         1 6DW       0.284700
     17 C21         -1.3330     3.5570     4.9950 cc         1 6DW      -0.267000
     18 C3           0.6920     1.7440     4.8300 cd         1 6DW       0.294900
     19 C22         -0.9970     2.9430     6.1630 cd         1 6DW       0.021900
     20 C2           0.0530     1.9890     6.1300 c          1 6DW       0.506000
     21 C19         -0.6330     6.1750     1.3160 cx         1 6DW      -0.065900
     22 C20          0.6540     5.3520     1.2670 cx         1 6DW      -0.065900
     23 C28         -2.5820     4.7100    11.7440 c3         1 6DW      -0.040700
     24 C27         -2.7930     5.7980    10.6670 c3         1 6DW       0.139800
     25 C18         -0.2760     5.2450     2.4760 cx         1 6DW      -0.151700
     26 C25         -3.2350     4.4710     8.6600 c3         1 6DW       0.145800
     27 C24         -2.6890     4.2090     7.2540 c3         1 6DW       0.188400
     28 N7           3.2000    -0.7830     3.9190 nd         1 6DW      -0.666800
     29 N31         -0.2030     3.5980     9.4530 nd         1 6DW      -0.456100
     30 N15          0.2670     2.4110     3.7790 nc         1 6DW      -0.472400
     31 N29         -1.4280     3.9540    11.2290 na         1 6DW       0.220700
     32 N8           2.0800    -0.0000     3.6120 na         1 6DW       0.623300
     33 N26         -2.2100     5.1520     9.4630 nh         1 6DW      -0.413600
     34 N16         -0.6860     3.2650     3.8520 na         1 6DW       0.187500
     35 O1           0.4090     1.3970     7.1390 o          1 6DW      -0.558100
     36 O23         -1.6470     3.2340     7.3220 os         1 6DW      -0.226900
     37 H1          -0.5410    -0.0000    -0.9390 ha         1 6DW       0.102000
     38 H3           1.1660     0.9860    13.7230 ha         1 6DW       0.100000
     39 H4           1.9240    -0.0000    -0.9390 ha         1 6DW       0.103500
     40 H5          -1.7770     0.0000     1.1930 ha         1 6DW       0.103500
     41 H6           2.0200     1.7840     9.6160 ha         1 6DW       0.119000
     42 H7          -0.7470     2.5330    13.6530 ha         1 6DW       0.097000
     43 H8           3.1590     0.0000     1.1950 ha         1 6DW       0.119000
     44 H9          -0.5520     0.0010     3.3300 ha         1 6DW       0.119000
     45 H10          2.7800     0.8810     6.6670 ha         1 6DW       0.153000
     46 H11          4.4140    -0.9670     5.6610 h4         1 6DW       0.001100
     47 H12         -2.1300     4.2910     4.9860 h4         1 6DW       0.152000
     48 H13         -1.4320     5.8320     0.6700 hc         1 6DW       0.048700
     49 H14         -0.5040     7.2340     1.5090 hc         1 6DW       0.048700
     50 H15          0.6420     4.5060     0.5910 hc         1 6DW       0.048700
     51 H16          1.5700     5.9070     1.4300 hc         1 6DW       0.048700
     52 H17         -2.3470     5.1610    12.7010 h1         1 6DW       0.030700
     53 H18         -2.2500     6.7010    10.9200 h1         1 6DW       0.038700
     54 H19          0.0800     5.7470     3.3670 hc         1 6DW       0.071700
     55 H22         -3.4950     3.5300     9.1280 h1         1 6DW       0.022700
     56 H23         -4.1170     5.0980     8.5940 h1         1 6DW       0.022700
     57 H24         -2.2960     5.1300     6.8420 h1         1 6DW       0.005200
     58 H25         -3.4870     3.8410     6.6200 h1         1 6DW       0.005200
     59 H26         -3.4540     4.0720    11.8170 h1         1 6DW       0.030700
     60 H27         -3.8480     5.9990    10.5230 h1         1 6DW       0.038700
     61 C17         -1.0920     3.9590     2.6280 c3         1 6DW       0.173800
     62 H2           2.5410     0.6140    11.7150 ha         1 6DW       0.104000
     63 H20         -0.9170     3.3170     1.7740 h1         1 6DW       0.041700
     64 H21         -2.1460     4.2050     2.6860 h1         1 6DW       0.041700
@<TRIPOS>BOND
     1     1     4 ar  
     2     1     5 ar  
     3     1    37 1   
     4     2     3 ar  
     5     2     6 ar  
     6     2    62 1   
     7     3     7 ar  
     8     3    38 1   
     9     4     8 ar  
    10     4    39 1   
    11     5     9 ar  
    12     5    40 1   
    13     6    12 ar  
    14     6    41 1   
    15     7    13 ar  
    16     7    42 1   
    17     8    14 ar  
    18     8    43 1   
    19     9    14 ar  
    20     9    44 1   
    21    10    11 1   
    22    10    15 2   
    23    10    45 1   
    24    11    28 2   
    25    11    46 1   
    26    12    13 ar  
    27    12    29 1   
    28    13    31 1   
    29    14    32 1   
    30    15    18 1   
    31    15    32 1   
    32    16    29 2   
    33    16    31 1   
    34    16    33 1   
    35    17    19 2   
    36    17    34 1   
    37    17    47 1   
    38    18    20 1   
    39    18    30 2   
    40    19    20 1   
    41    19    36 1   
    42    20    35 2   
    43    21    22 1   
    44    21    25 1   
    45    21    48 1   
    46    21    49 1   
    47    22    25 1   
    48    22    50 1   
    49    22    51 1   
    50    23    24 1   
    51    23    31 1   
    52    23    52 1   
    53    23    59 1   
    54    24    33 1   
    55    24    53 1   
    56    24    60 1   
    57    25    54 1   
    58    25    61 1   
    59    26    27 1   
    60    26    33 1   
    61    26    55 1   
    62    26    56 1   
    63    27    36 1   
    64    27    57 1   
    65    27    58 1   
    66    28    32 1   
    67    30    34 1   
    68    34    61 1   
    69    61    63 1   
    70    61    64 1   
@<TRIPOS>SUBSTRUCTURE
     1 6DW         1 TEMP              0 ****  ****    0 ROOT
