@<TRIPOS>MOLECULE
molecule
   59    58     1     0     0
SMALL
bcc


@<TRIPOS>ATOM
      1 C15          0.0000     0.0000     0.0000 c3         1 6E0      -0.083400
      2 C16          1.5300     0.0000     0.0000 c3         1 6E0      -0.085400
      3 C17          2.0400     0.0000     1.4430 c3         1 6E0      -0.041400
      4 C18          3.5690     0.0010     1.4430 c3         1 6E0      -0.246600
      5 C01        -14.2780    -0.0030   -10.1000 c3         1 6E0      -0.092100
      6 C02        -12.7480    -0.0020   -10.1000 c3         1 6E0      -0.084400
      7 C03        -12.2380    -0.0020    -8.6580 c3         1 6E0      -0.081400
      8 C04        -10.7090    -0.0020    -8.6570 c3         1 6E0      -0.082400
      9 C05        -10.1990    -0.0020    -7.2150 c3         1 6E0      -0.082400
     10 C06         -8.6680    -0.0020    -7.2140 c3         1 6E0      -0.082400
     11 C07         -8.1590    -0.0020    -5.7720 c3         1 6E0      -0.082400
     12 C08         -6.6280    -0.0010    -5.7710 c3         1 6E0      -0.082400
     13 C09         -6.1190    -0.0010    -4.3280 c3         1 6E0      -0.082400
     14 C10         -4.5900    -0.0010    -4.3280 c3         1 6E0      -0.082400
     15 C11         -4.0800    -0.0010    -2.8860 c3         1 6E0      -0.082400
     16 C12         -2.5490    -0.0000    -2.8860 c3         1 6E0      -0.082400
     17 C13         -2.0400    -0.0010    -1.4430 c3         1 6E0      -0.083400
     18 C14         -0.5100     0.0000    -1.4420 c3         1 6E0      -0.084400
     19 P19          4.1770     0.0010     3.1620 p5         1 6E0       1.055700
     20 O20          3.5870    -1.1430     3.8930 o          1 6E0      -0.921500
     21 O21          5.7820    -0.1310     3.1640 o          1 6E0      -0.921500
     22 O22          3.7500     1.3770     3.8820 o          1 6E0      -0.921500
     23 H152        -0.3610     0.8850     0.5110 hc         1 6E0       0.036200
     24 H151        -0.3610    -0.8850     0.5110 hc         1 6E0       0.036200
     25 H161         1.8910    -0.8840    -0.5110 hc         1 6E0       0.019700
     26 H162         1.8910     0.8840    -0.5110 hc         1 6E0       0.019700
     27 H172         1.6780     0.8840     1.9540 hc         1 6E0       0.045200
     28 H171         1.6800    -0.8850     1.9530 hc         1 6E0       0.045200
     29 H182         3.9300     0.8860     0.9330 hc         1 6E0       0.014700
     30 H181         3.9310    -0.8830     0.9320 hc         1 6E0       0.014700
     31 H012       -14.6390    -0.0030   -11.1220 hc         1 6E0       0.030367
     32 H011       -14.6400     0.8810    -9.5890 hc         1 6E0       0.030367
     33 H013       -14.6380    -0.8880    -9.5900 hc         1 6E0       0.030367
     34 H021       -12.3880     0.8830   -10.6110 hc         1 6E0       0.038700
     35 H022       -12.3860    -0.8860   -10.6110 hc         1 6E0       0.038700
     36 H032       -12.6000    -0.8870    -8.1480 hc         1 6E0       0.040700
     37 H031       -12.6000     0.8820    -8.1480 hc         1 6E0       0.040700
     38 H041       -10.3470    -0.8870    -9.1670 hc         1 6E0       0.039700
     39 H042       -10.3470     0.8820    -9.1670 hc         1 6E0       0.039700
     40 H051       -10.5600     0.8820    -6.7040 hc         1 6E0       0.040700
     41 H052       -10.5600    -0.8870    -6.7040 hc         1 6E0       0.040700
     42 H061        -8.3070    -0.8870    -7.7250 hc         1 6E0       0.039700
     43 H062        -8.3070     0.8820    -7.7250 hc         1 6E0       0.039700
     44 H071        -8.5190    -0.8870    -5.2610 hc         1 6E0       0.040700
     45 H072        -8.5210     0.8820    -5.2610 hc         1 6E0       0.040700
     46 H081        -6.2660    -0.8850    -6.2820 hc         1 6E0       0.039700
     47 H082        -6.2670     0.8840    -6.2820 hc         1 6E0       0.039700
     48 H091        -6.4800    -0.8860    -3.8180 hc         1 6E0       0.039700
     49 H092        -6.4800     0.8830    -3.8180 hc         1 6E0       0.039700
     50 H101        -4.2280     0.8830    -4.8390 hc         1 6E0       0.038700
     51 H102        -4.2280    -0.8860    -4.8390 hc         1 6E0       0.038700
     52 H112        -4.4400    -0.8860    -2.3760 hc         1 6E0       0.039200
     53 H111        -4.4420     0.8830    -2.3750 hc         1 6E0       0.039200
     54 H121        -2.1870    -0.8840    -3.3970 hc         1 6E0       0.036700
     55 H122        -2.1890     0.8850    -3.3950 hc         1 6E0       0.036700
     56 H131        -2.4010    -0.8860    -0.9330 hc         1 6E0       0.037700
     57 H132        -2.4020     0.8830    -0.9310 hc         1 6E0       0.037700
     58 H142        -0.1490     0.8850    -1.9530 hc         1 6E0       0.031700
     59 H141        -0.1480    -0.8840    -1.9530 hc         1 6E0       0.031700
@<TRIPOS>BOND
     1    21    19 1
     2    19    22 1
     3    19    20 1
     4    19     4 1
     5     4     3 1
     6     3     2 1
     7     5     6 1
     8     2     1 1
     9     6     7 1
    10     1    18 1
    11     7     8 1
    12    18    17 1
    13     9     8 1
    14     9    10 1
    15    17    16 1
    16    11    10 1
    17    11    12 1
    18    14    13 1
    19    14    15 1
    20    16    15 1
    21    12    13 1
    22     1    23 1
    23     1    24 1
    24     2    25 1
    25     2    26 1
    26     3    27 1
    27     3    28 1
    28     4    29 1
    29     4    30 1
    30     5    31 1
    31     5    32 1
    32     5    33 1
    33     6    34 1
    34     6    35 1
    35     7    36 1
    36     7    37 1
    37     8    38 1
    38     8    39 1
    39     9    40 1
    40     9    41 1
    41    10    42 1
    42    10    43 1
    43    11    44 1
    44    11    45 1
    45    12    46 1
    46    12    47 1
    47    13    48 1
    48    13    49 1
    49    14    50 1
    50    14    51 1
    51    15    52 1
    52    15    53 1
    53    16    54 1
    54    16    55 1
    55    17    56 1
    56    17    57 1
    57    18    58 1
    58    18    59 1
@<TRIPOS>SUBSTRUCTURE
     1 6E0         1 TEMP              0 ****  ****    0 ROOT
