@<TRIPOS>MOLECULE
6E2
   63    67     1     0     0
SMALL
bcc


@<TRIPOS>ATOM
      1 C28          0.0000     0.0000     0.0000 c3         1 6E2       0.107800
      2 C30          1.5310     0.0000     0.0000 c3         1 6E2       0.214900
      3 O31          2.0030     0.0000     1.3500 os         1 6E2      -0.412600
      4 C29          1.5500     1.1180     2.1180 c3         1 6E2       0.214900
      5 C27          0.0200     1.1300     2.1400 c3         1 6E2       0.107800
      6 N26         -0.4840     1.1620     0.7590 n3         1 6E2      -0.536600
      7 C25         -1.9520     1.2300     0.7360 c3         1 6E2       0.159800
      8 C24         -2.4090     2.5710     1.3140 c3         1 6E2      -0.044400
      9 C23         -3.9370     2.6430     1.2910 c3         1 6E2       0.199400
     10 O22         -4.3640     3.8950     1.8310 os         1 6E2      -0.287900
     11 C6          -5.7020     4.1210     1.8830 ca         1 6E2       0.156100
     12 C4          -6.1780     5.3190     2.3960 ca         1 6E2       0.021800
     13 C2          -7.5570     5.5490     2.4480 ca         1 6E2       0.429600
     14 N9          -8.0590     6.7080     2.9450 nc         1 6E2      -0.617000
     15 O20         -5.3090     6.2630     2.8480 os         1 6E2      -0.299900
     16 C21         -4.8520     7.2290     1.9000 c3         1 6E2       0.255700
     17 C5          -6.5830     3.1510     1.4130 ca         1 6E2      -0.232000
     18 C3          -7.9440     3.3650     1.4530 ca         1 6E2       0.002000
     19 C1          -8.4400     4.5560     1.9750 ca         1 6E2      -0.214300
     20 C7          -9.8940     4.8240     2.0360 cc         1 6E2      -0.005300
     21 N32        -10.8980     4.0750     1.6750 n2         1 6E2      -0.343200
     22 C33        -12.1690     4.7510     1.9510 c3         1 6E2       0.171800
     23 C34        -11.7510     6.1000     2.5680 c3         1 6E2      -0.051700
     24 N8         -10.2810     6.0350     2.5720 na         1 6E2       0.042100
     25 C10         -9.3430     6.9350     3.0000 cd         1 6E2       0.378400
     26 N11         -9.7760     8.1320     3.5280 ns         1 6E2      -0.127400
     27 C12         -8.8810     9.0420     3.9600 c          1 6E2       0.591700
     28 O13         -7.6900     8.8070     3.8810 o          1 6E2      -0.545100
     29 C14         -9.3440    10.3230     4.5260 ca         1 6E2      -0.494200
     30 C16         -8.4280    11.2810     4.9790 ca         1 6E2       0.538200
     31 N18         -8.8820    12.4140     5.4790 nb         1 6E2      -0.705500
     32 C19        -10.1860    12.6500     5.5550 ca         1 6E2       0.722900
     33 N35        -10.6190    13.8490     6.0830 nv         1 6E2      -0.472500
     34 N17        -11.0840    11.7690     5.1370 nb         1 6E2      -0.705500
     35 C15        -10.7110    10.6140     4.6200 ca         1 6E2       0.538200
     36 H1          -0.3610    -0.9100     0.4640 h1         1 6E2       0.018950
     37 H2           1.8920     0.8860    -0.5080 h1         1 6E2       0.012700
     38 H3           1.9250     1.0350     3.1310 h1         1 6E2       0.012700
     39 H4           1.9120     2.0350     1.6670 h1         1 6E2       0.012700
     40 H5          -0.3410     0.2370     2.6350 h1         1 6E2       0.018950
     41 H6          -0.3270     2.0090     2.6700 h1         1 6E2       0.018950
     42 H7          -2.3610     0.4230     1.3300 h1         1 6E2       0.009200
     43 H8          -2.3010     1.1400    -0.2860 h1         1 6E2       0.009200
     44 H9          -2.0000     3.3790     0.7190 hc         1 6E2       0.034200
     45 H10         -2.0590     2.6620     2.3350 hc         1 6E2       0.034200
     46 H11         -4.3460     1.8350     1.8850 h1         1 6E2       0.001700
     47 H12         -4.2870     2.5530     0.2690 h1         1 6E2       0.001700
     48 H13         -5.4510     7.1640     1.0000 h1         1 6E2      -0.009300
     49 H14         -4.9430     8.2220     2.3240 h1         1 6E2      -0.009300
     50 H15         -3.8140     7.0340     1.6570 h1         1 6E2      -0.009300
     51 H16         -6.1960     2.2220     1.0130 ha         1 6E2       0.124000
     52 H17         -8.6250     2.6060     1.0860 ha         1 6E2       0.122000
     53 H19        -12.7560     4.1780     2.6580 h1         1 6E2       0.029200
     54 H20        -12.7200     4.9110     1.0320 h1         1 6E2       0.029200
     55 H21        -12.0930     6.9220     1.9510 h1         1 6E2       0.023200
     56 H22        -12.1300     6.1880     3.5790 h1         1 6E2       0.023200
     57 H23        -10.7560     8.3290     3.5850 hn         1 6E2       0.171500
     58 H24         -7.3620    11.0950     4.9200 h4         1 6E2      -0.010900
     59 H25         -9.9590    14.4930     6.4710 hn         1 6E2       0.277300
     60 H26        -11.5940    14.0740     6.0790 hn         1 6E2       0.277300
     61 H27        -11.4510     9.8980     4.2810 h4         1 6E2      -0.010900
     62 H18         -0.3610     0.0600    -1.0200 h1         1 6E2       0.018950
     63 H28          1.8910    -0.8860    -0.5080 h1         1 6E2       0.012700
@<TRIPOS>BOND
     1     1     2 1   
     2     1     6 1   
     3     1    36 1   
     4     1    62 1   
     5     2     3 1   
     6     2    37 1   
     7     2    63 1   
     8     3     4 1   
     9     4     5 1   
    10     4    38 1   
    11     4    39 1   
    12     5     6 1   
    13     5    40 1   
    14     5    41 1   
    15     6     7 1   
    16     7     8 1   
    17     7    42 1   
    18     7    43 1   
    19     8     9 1   
    20     8    44 1   
    21     8    45 1   
    22     9    10 1   
    23     9    46 1   
    24     9    47 1   
    25    10    11 1   
    26    11    12 ar  
    27    11    17 ar  
    28    12    13 ar  
    29    12    15 1   
    30    13    14 1   
    31    13    19 ar  
    32    14    25 2   
    33    15    16 1   
    34    16    48 1   
    35    16    49 1   
    36    16    50 1   
    37    17    18 ar  
    38    17    51 1   
    39    18    19 ar  
    40    18    52 1   
    41    19    20 1   
    42    20    21 2   
    43    20    24 1   
    44    21    22 1   
    45    22    23 1   
    46    22    53 1   
    47    22    54 1   
    48    23    24 1   
    49    23    55 1   
    50    23    56 1   
    51    24    25 1   
    52    25    26 1   
    53    26    27 1   
    54    26    57 1   
    55    27    28 2   
    56    27    29 1   
    57    29    30 ar  
    58    29    35 ar  
    59    30    31 ar  
    60    30    58 1   
    61    31    32 ar  
    62    32    33 1   
    63    32    34 ar  
    64    33    59 1   
    65    33    60 1   
    66    34    35 ar  
    67    35    61 1   
@<TRIPOS>SUBSTRUCTURE
     1 6E2         1 TEMP              0 ****  ****    0 ROOT
