@<TRIPOS>MOLECULE
molecule
   63    67     1     0     0
SMALL
bcc


@<TRIPOS>ATOM
      1 C28          0.0000     0.0000     0.0000 c3         1 6E2       0.122300
      2 C30          1.5310     0.0000     0.0000 c3         1 6E2       0.139400
      3 O31          2.0030     0.0000     1.3500 os         1 6E2      -0.425600
      4 C29          1.5500     1.1180     2.1180 c3         1 6E2       0.139400
      5 C27          0.0200     1.1300     2.1400 c3         1 6E2       0.122300
      6 N26         -0.4840     1.1620     0.7590 n3         1 6E2      -0.726600
      7 C25         -1.9520     1.2300     0.7360 c3         1 6E2       0.164800
      8 C24         -2.4090     2.5710     1.3140 c3         1 6E2      -0.083400
      9 C23         -3.9370     2.6430     1.2910 c3         1 6E2       0.134400
     10 O22         -4.3640     3.8950     1.8310 os         1 6E2      -0.310900
     11 C6          -5.7020     4.1210     1.8830 ca         1 6E2       0.157100
     12 C4          -6.1780     5.3190     2.3960 ca         1 6E2       0.016800
     13 C2          -7.5570     5.5490     2.4480 ca         1 6E2       0.483600
     14 N9          -8.0590     6.7080     2.9450 nc         1 6E2      -0.732000
     15 O20         -5.3090     6.2630     2.8480 os         1 6E2      -0.312900
     16 C21         -4.8520     7.2290     1.9000 c3         1 6E2       0.140700
     17 C5          -6.5830     3.1510     1.4130 ca         1 6E2      -0.247000
     18 C3          -7.9440     3.3650     1.4530 ca         1 6E2      -0.029000
     19 C1          -8.4400     4.5560     1.9750 ca         1 6E2      -0.216300
     20 C7          -9.8940     4.8240     2.0360 cc         1 6E2       0.128700
     21 N32        -10.8980     4.0750     1.6750 n2         1 6E2      -0.369200
     22 C33        -12.1690     4.7510     1.9510 c3         1 6E2       0.111800
     23 C34        -11.7510     6.1000     2.5680 c3         1 6E2      -0.002700
     24 N8         -10.2810     6.0350     2.5720 na         1 6E2      -0.351900
     25 C10         -9.3430     6.9350     3.0000 cd         1 6E2       0.711400
     26 N11         -9.7760     8.1320     3.5280 ns         1 6E2      -0.555400
     27 C12         -8.8810     9.0420     3.9600 c          1 6E2       0.678700
     28 O13         -7.6900     8.8070     3.8810 o          1 6E2      -0.505100
     29 C14         -9.3440    10.3230     4.5260 ca         1 6E2      -0.476200
     30 C16         -8.4280    11.2810     4.9790 ca         1 6E2       0.545200
     31 N18         -8.8820    12.4140     5.4790 nb         1 6E2      -0.802500
     32 C19        -10.1860    12.6500     5.5550 ca         1 6E2       0.962900
     33 N35        -10.6190    13.8490     6.0830 nv         1 6E2      -0.974500
     34 N17        -11.0840    11.7690     5.1370 nb         1 6E2      -0.802500
     35 C15        -10.7110    10.6140     4.6200 ca         1 6E2       0.545200
     36 H1          -0.3610    -0.9100     0.4640 h1         1 6E2       0.043950
     37 H2           1.8920     0.8860    -0.5080 h1         1 6E2       0.053950
     38 H3           1.9250     1.0350     3.1310 h1         1 6E2       0.053950
     39 H4           1.9120     2.0350     1.6670 h1         1 6E2       0.053950
     40 H5          -0.3410     0.2370     2.6350 h1         1 6E2       0.043950
     41 H6          -0.3270     2.0090     2.6700 h1         1 6E2       0.043950
     42 H7          -2.3610     0.4230     1.3300 h1         1 6E2       0.035700
     43 H8          -2.3010     1.1400    -0.2860 h1         1 6E2       0.035700
     44 H9          -2.0000     3.3790     0.7190 hc         1 6E2       0.065200
     45 H10         -2.0590     2.6620     2.3350 hc         1 6E2       0.065200
     46 H11         -4.3460     1.8350     1.8850 h1         1 6E2       0.035700
     47 H12         -4.2870     2.5530     0.2690 h1         1 6E2       0.035700
     48 H13         -5.4510     7.1640     1.0000 h1         1 6E2       0.033367
     49 H14         -4.9430     8.2220     2.3240 h1         1 6E2       0.033367
     50 H15         -3.8140     7.0340     1.6570 h1         1 6E2       0.033367
     51 H16         -6.1960     2.2220     1.0130 ha         1 6E2       0.140000
     52 H17         -8.6250     2.6060     1.0860 ha         1 6E2       0.153000
     53 H19        -12.7560     4.1780     2.6580 h1         1 6E2       0.069200
     54 H20        -12.7200     4.9110     1.0320 h1         1 6E2       0.069200
     55 H21        -12.0930     6.9220     1.9510 h1         1 6E2       0.053200
     56 H22        -12.1300     6.1880     3.5790 h1         1 6E2       0.053200
     57 H23        -10.7560     8.3290     3.5850 hn         1 6E2       0.326500
     58 H24         -7.3620    11.0950     4.9200 h4         1 6E2       0.038100
     59 H25         -9.9590    14.4930     6.4710 hn         1 6E2       0.455800
     60 H26        -11.5940    14.0740     6.0790 hn         1 6E2       0.455800
     61 H27        -11.4510     9.8980     4.2810 h4         1 6E2       0.038100
     62 H18         -0.3610     0.0600    -1.0200 h1         1 6E2       0.043950
     63 H28          1.8910    -0.8860    -0.5080 h1         1 6E2       0.053950
@<TRIPOS>BOND
     1    21    22 1
     2    21    20 2
     3    22    23 1
     4    23    24 1
     5    20    24 1
     6    20    19 1
     7    18    19 ar
     8    18    17 ar
     9    24    25 1
    10    19    13 ar
    11    17    11 ar
    12    25    26 1
    13    25    14 2
    14    26    27 1
    15    13    14 1
    16    13    12 ar
    17    11    12 ar
    18    11    10 1
    19    35    34 ar
    20    35    29 ar
    21    34    32 ar
    22    12    15 1
    23    10     9 1
    24    16    15 1
    25     9     8 1
    26    27    29 1
    27    27    28 2
    28    29    30 ar
    29    32    33 1
    30    32    31 ar
    31     8     7 1
    32    30    31 ar
    33     1     6 1
    34     1     2 1
    35     7     6 1
    36     6     5 1
    37     2     3 1
    38     5     4 1
    39     3     4 1
    40     1    36 1
    41     2    37 1
    42     4    38 1
    43     4    39 1
    44     5    40 1
    45     5    41 1
    46     7    42 1
    47     7    43 1
    48     8    44 1
    49     8    45 1
    50     9    46 1
    51     9    47 1
    52    16    48 1
    53    16    49 1
    54    16    50 1
    55    17    51 1
    56    18    52 1
    57    22    53 1
    58    22    54 1
    59    23    55 1
    60    23    56 1
    61    26    57 1
    62    30    58 1
    63    33    59 1
    64    33    60 1
    65    35    61 1
    66     1    62 1
    67     2    63 1
@<TRIPOS>SUBSTRUCTURE
     1 6E2         1 TEMP              0 ****  ****    0 ROOT
