@<TRIPOS>MOLECULE
molecule
   26    27     1     0     0
SMALL
bcc


@<TRIPOS>ATOM
      1 O1           0.0000     0.0000     0.0000 o          1 6E3      -0.565500
      2 C7           4.1600    -0.0010     2.4510 c3         1 6E3      -0.041900
      3 C8           5.8900    -0.0070    -0.6290 c3         1 6E3      -0.041900
      4 C9           4.6090     0.0020    -3.4650 c3         1 6E3      -0.008400
      5 N            3.4030     0.0000     0.0000 na         1 6E3      -0.339200
      6 C3           3.1340     0.0000     1.3470 cc         1 6E3       0.160800
      7 C4           1.7980    -0.0010     1.5120 cd         1 6E3      -0.279400
      8 C5           1.1940     0.0000     0.2300 c          1 6E3       0.731700
      9 C6           1.0710    -0.0010     2.8330 c3         1 6E3      -0.008400
     10 C1           3.8600     0.0020    -2.1580 cd         1 6E3      -0.279400
     11 N1           2.1820     0.0010    -0.6860 n          1 6E3      -0.331800
     12 C            2.4510     0.0020    -2.0070 c          1 6E3       0.731700
     13 O            1.6330     0.0060    -2.9070 o          1 6E3      -0.565500
     14 C2           4.4130    -0.0040    -0.9300 cc         1 6E3       0.160800
     15 H4           4.7750    -0.8890     2.3710 hc         1 6E3       0.063033
     16 H3           4.7840     0.8800     2.3650 hc         1 6E3       0.063033
     17 H11          3.6570     0.0040     3.4100 hc         1 6E3       0.063033
     18 H6           6.1500     0.8950    -0.0890 hc         1 6E3       0.063033
     19 H5           6.4480    -0.0470    -1.5560 hc         1 6E3       0.063033
     20 H7           6.1330    -0.8730    -0.0240 hc         1 6E3       0.063033
     21 H9           5.1810     0.9180    -3.5540 hc         1 6E3       0.050033
     22 H10          3.9050    -0.0650    -4.2860 hc         1 6E3       0.050033
     23 H8           5.2810    -0.8470    -3.4970 hc         1 6E3       0.050033
     24 H2           1.2950     0.9130     3.3680 hc         1 6E3       0.050033
     25 H1           1.3910    -0.8520     3.4210 hc         1 6E3       0.050033
     26 H            0.0040    -0.0650     2.6570 hc         1 6E3       0.050033
@<TRIPOS>BOND
     1     4    10 1
     2     3    14 1
     3     9     7 1
     4     2     6 1
     5    14    10 2
     6    14     5 1
     7    10    12 1
     8     7     6 2
     9     7     8 1
    10     6     5 1
    11     8     1 2
    12     8    11 1
    13     5    11 1
    14    12    11 1
    15    12    13 2
    16     2    15 1
    17     2    16 1
    18     2    17 1
    19     3    18 1
    20     3    19 1
    21     3    20 1
    22     4    21 1
    23     4    22 1
    24     4    23 1
    25     9    24 1
    26     9    25 1
    27     9    26 1
@<TRIPOS>SUBSTRUCTURE
     1 6E3         1 TEMP              0 ****  ****    0 ROOT
