@<TRIPOS>MOLECULE
6E3
   26    27     1     0     0
SMALL
bcc


@<TRIPOS>ATOM
      1 O1           0.0000     0.0000     0.0000 o          1 6E3      -0.600500
      2 C7           4.1600    -0.0010     2.4510 c3         1 6E3       0.078100
      3 C8           5.8900    -0.0070    -0.6290 c3         1 6E3       0.078100
      4 C9           4.6090     0.0020    -3.4650 c3         1 6E3       0.111600
      5 N            3.4030     0.0000     0.0000 na         1 6E3      -0.011200
      6 C3           3.1340     0.0000     1.3470 cc         1 6E3      -0.002200
      7 C4           1.7980    -0.0010     1.5120 cd         1 6E3      -0.293400
      8 C5           1.1940     0.0000     0.2300 c          1 6E3       0.665700
      9 C6           1.0710    -0.0010     2.8330 c3         1 6E3       0.111600
     10 C1           3.8600     0.0020    -2.1580 cc         1 6E3      -0.293400
     11 N1           2.1820     0.0010    -0.6860 n          1 6E3      -0.101800
     12 C            2.4510     0.0020    -2.0070 c          1 6E3       0.665700
     13 O            1.6330     0.0060    -2.9070 o          1 6E3      -0.600500
     14 C2           4.4130    -0.0040    -0.9300 cd         1 6E3      -0.002200
     15 H4           4.7750    -0.8890     2.3710 hc         1 6E3       0.020867
     16 H3           4.7840     0.8800     2.3650 hc         1 6E3       0.020867
     17 H11          3.6570     0.0040     3.4100 hc         1 6E3       0.020867
     18 H6           6.1500     0.8950    -0.0890 hc         1 6E3       0.020867
     19 H5           6.4480    -0.0470    -1.5560 hc         1 6E3       0.020867
     20 H7           6.1330    -0.8730    -0.0240 hc         1 6E3       0.020867
     21 H9           5.1810     0.9180    -3.5540 hc         1 6E3       0.011700
     22 H10          3.9050    -0.0650    -4.2860 hc         1 6E3       0.011700
     23 H8           5.2810    -0.8470    -3.4970 hc         1 6E3       0.011700
     24 H2           1.2950     0.9130     3.3680 hc         1 6E3       0.011700
     25 H1           1.3910    -0.8520     3.4210 hc         1 6E3       0.011700
     26 H            0.0040    -0.0650     2.6570 hc         1 6E3       0.011700
@<TRIPOS>BOND
     1     1     8 2   
     2     2     6 1   
     3     2    15 1   
     4     2    16 1   
     5     2    17 1   
     6     3    14 1   
     7     3    18 1   
     8     3    19 1   
     9     3    20 1   
    10     4    10 1   
    11     4    21 1   
    12     4    22 1   
    13     4    23 1   
    14     5     6 1   
    15     5    11 1   
    16     5    14 1   
    17     6     7 2   
    18     7     8 1   
    19     7     9 1   
    20     8    11 1   
    21     9    24 1   
    22     9    25 1   
    23     9    26 1   
    24    10    12 1   
    25    10    14 2   
    26    11    12 1   
    27    12    13 2   
@<TRIPOS>SUBSTRUCTURE
     1 6E3         1 TEMP              0 ****  ****    0 ROOT
