@<TRIPOS>MOLECULE
6E5
   69    73     1     0     0
SMALL
bcc


@<TRIPOS>ATOM
      1 S01          0.0000     0.0000     0.0000 ss         1 6E5      -0.221800
      2 C02          1.7060     0.0000     0.0000 cc         1 6E5      -0.009100
      3 C03          2.1840     0.0000     1.2480 cd         1 6E5      -0.130000
      4 C04          1.2270    -0.0010     2.2390 cd         1 6E5      -0.095000
      5 C05         -0.0490    -0.0020     1.7580 cc         1 6E5      -0.095000
      6 C06         -1.2690    -0.0020     2.5770 ce         1 6E5       0.534800
      7 N07         -2.5100    -0.0010     1.9690 nu         1 6E5      -0.276600
      8 N08         -1.1820    -0.0020     3.8800 n2         1 6E5      -0.753100
      9 N1'         -4.8660    -6.1890     4.8780 n7         1 6E5      -0.568200
     10 C11         -3.6680    -0.1190     2.7420 ca         1 6E5       0.004600
     11 C12         -4.7940     0.6310     2.4280 ca         1 6E5      -0.134000
     12 C13         -5.9370     0.5120     3.1940 ca         1 6E5      -0.090000
     13 C14         -5.9600    -0.3510     4.2740 ca         1 6E5      -0.099000
     14 C15         -4.8410    -1.0990     4.5900 ca         1 6E5      -0.086300
     15 C16         -3.6970    -0.9910     3.8230 ca         1 6E5      -0.069000
     16 C17         -4.8720    -2.0390     5.7670 c3         1 6E5       0.270700
     17 O18         -5.3170    -3.3280     5.3370 os         1 6E5      -0.412600
     18 C19         -5.3830    -4.2990     6.3830 c3         1 6E5       0.219400
     19 C2'         -5.8690    -5.6330     5.8100 c3         1 6E5       0.114500
     20 S21         -7.7700   -14.0630    13.1950 ss         1 6E5      -0.223800
     21 C22         -8.7690   -13.5140    14.4640 cc         1 6E5      -0.009100
     22 C23         -8.8710   -12.1820    14.4510 cd         1 6E5      -0.130000
     23 C24         -8.1700   -11.5530    13.4460 cd         1 6E5      -0.095000
     24 C25         -7.4920   -12.4170    12.6400 cc         1 6E5      -0.095000
     25 C26         -6.6590   -12.0360    11.4890 ce         1 6E5       0.529800
     26 N28         -6.5260   -10.7760    11.1690 n2         1 6E5      -0.743100
     27 C3'         -5.9910    -6.6890     6.9360 c3         1 6E5      -0.030400
     28 C30         -5.8860   -11.7230     8.7070 ca         1 6E5      -0.072000
     29 C31         -5.3410   -12.6600     9.5740 ca         1 6E5       0.006600
     30 C32         -4.1190   -13.2510     9.2740 ca         1 6E5      -0.131000
     31 C33         -3.4520   -12.9040     8.1170 ca         1 6E5      -0.088000
     32 C34         -3.9980   -11.9700     7.2560 ca         1 6E5      -0.096000
     33 C35         -5.2130   -11.3810     7.5510 ca         1 6E5      -0.089300
     34 C37         -5.8040   -10.3630     6.6090 c3         1 6E5       0.268700
     35 O38         -5.3530    -9.0570     6.9740 os         1 6E5      -0.386600
     36 C4'         -5.8570    -8.0130     6.1390 c3         1 6E5       0.159100
     37 C5'         -4.8380    -7.6540     5.0370 c3         1 6E5       0.110800
     38 H02          2.3200     0.0010    -0.8920 h4         1 6E5       0.152000
     39 H03          3.2450     0.0000     1.4650 ha         1 6E5       0.123000
     40 H04          1.4640    -0.0020     3.2960 ha         1 6E5       0.129000
     41 HN07        -2.5820     0.1360     0.9800 hn         1 6E5       0.288800
     42 HN08        -0.2840    -0.0030     4.3220 hn         1 6E5       0.331400
     43 HN1'        -5.1220    -5.9600     3.9380 hn         1 6E5       0.256800
     44 H12         -4.7760     1.3080     1.5820 ha         1 6E5       0.103000
     45 H13         -6.8160     1.0970     2.9500 ha         1 6E5       0.100000
     46 H14         -6.8570    -0.4400     4.8750 ha         1 6E5       0.104000
     47 H16         -2.8210    -1.5770     4.0720 ha         1 6E5       0.134000
     48 H17         -5.5520    -1.6550     6.5180 h1         1 6E5      -0.005300
     49 H17A        -3.8780    -2.1230     6.1890 h1         1 6E5      -0.005300
     50 H19         -4.3990    -4.4300     6.8170 h1         1 6E5      -0.003300
     51 H19A        -6.0730    -3.9610     7.1470 h1         1 6E5      -0.003300
     52 H2'         -6.8200    -5.5090     5.3070 h1         1 6E5       0.017700
     53 H23         -9.4620   -11.6370    15.1770 ha         1 6E5       0.124000
     54 H24         -8.1590   -10.4790    13.3100 ha         1 6E5       0.129000
     55 HN28        -6.9900   -10.0710    11.7070 hn         1 6E5       0.331400
     56 H3'         -6.9590    -6.6260     7.4200 hc         1 6E5       0.033700
     57 H3'A        -5.1840    -6.5860     7.6510 hc         1 6E5       0.033700
     58 H30         -6.8380   -11.2600     8.9370 ha         1 6E5       0.129000
     59 H32         -3.6910   -13.9830     9.9490 ha         1 6E5       0.104000
     60 H33         -2.4990   -13.3650     7.8820 ha         1 6E5       0.101000
     61 H34         -3.4720   -11.7000     6.3480 ha         1 6E5       0.106000
     62 H37         -6.8850   -10.4010     6.6680 h1         1 6E5      -0.008300
     63 H37A        -5.4900   -10.5830     5.5960 h1         1 6E5      -0.008300
     64 H4'         -6.8080    -8.2910     5.7010 h1         1 6E5       0.009700
     65 H5'         -5.1210    -8.1300     4.1060 h1         1 6E5       0.020200
     66 H5'A        -3.8470    -7.9730     5.3350 h1         1 6E5       0.020200
     67 N27         -6.0190   -13.0090    10.7460 nu         1 6E5      -0.279600
     68 H22         -9.2560   -14.1600    15.1850 h4         1 6E5       0.152000
     69 HN27        -5.9930   -13.9540    11.0760 hn         1 6E5       0.288800
@<TRIPOS>BOND
     1     1     2 1   
     2     1     5 1   
     3     2     3 2   
     4     2    38 1   
     5     3     4 1   
     6     3    39 1   
     7     4     5 2   
     8     4    40 1   
     9     5     6 1   
    10     6     7 1   
    11     6     8 2   
    12     7    10 1   
    13     7    41 1   
    14     8    42 1   
    15     9    19 1   
    16     9    37 1   
    17     9    43 1   
    18    10    11 ar  
    19    10    15 ar  
    20    11    12 ar  
    21    11    44 1   
    22    12    13 ar  
    23    12    45 1   
    24    13    14 ar  
    25    13    46 1   
    26    14    15 ar  
    27    14    16 1   
    28    15    47 1   
    29    16    17 1   
    30    16    48 1   
    31    16    49 1   
    32    17    18 1   
    33    18    19 1   
    34    18    50 1   
    35    18    51 1   
    36    19    27 1   
    37    19    52 1   
    38    20    21 1   
    39    20    24 1   
    40    21    22 2   
    41    21    68 1   
    42    22    23 1   
    43    22    53 1   
    44    23    24 2   
    45    23    54 1   
    46    24    25 1   
    47    25    26 2   
    48    25    67 1   
    49    26    55 1   
    50    27    36 1   
    51    27    56 1   
    52    27    57 1   
    53    28    29 ar  
    54    28    33 ar  
    55    28    58 1   
    56    29    30 ar  
    57    29    67 1   
    58    30    31 ar  
    59    30    59 1   
    60    31    32 ar  
    61    31    60 1   
    62    32    33 ar  
    63    32    61 1   
    64    33    34 1   
    65    34    35 1   
    66    34    62 1   
    67    34    63 1   
    68    35    36 1   
    69    36    37 1   
    70    36    64 1   
    71    37    65 1   
    72    37    66 1   
    73    67    69 1   
@<TRIPOS>SUBSTRUCTURE
     1 6E5         1 TEMP              0 ****  ****    0 ROOT
