@<TRIPOS>MOLECULE
6E6
   65    69     1     0     0
SMALL
bcc


@<TRIPOS>ATOM
      1 C4           0.0000     0.0000     0.0000 ca         1 6E6       0.567600
      2 C5           1.3980     0.0000     0.0000 ca         1 6E6      -0.381400
      3 C6           2.0530     0.0000     1.2590 ca         1 6E6       0.590200
      4 N1           1.3210    -0.0000     2.3620 nb         1 6E6      -0.756000
      5 N3          -0.6520    -0.0000     1.1690 nb         1 6E6      -0.605000
      6 FAE          0.5900    -2.4620    -4.1510 f          1 6E6      -0.217300
      7 CBM          1.4770    -1.4610    -4.2690 c3         1 6E6       0.587900
      8 FAF          2.4900    -2.1180    -3.5630 f          1 6E6      -0.217300
      9 FAG          1.7800    -1.4670    -5.6350 f          1 6E6      -0.217300
     10 CBB          1.0400    -0.0100    -2.3070 cc         1 6E6      -0.055600
     11 SAZ         -0.5890    -0.0070    -1.6560 ss         1 6E6      -0.258900
     12 CAN          1.9410    -0.0010    -1.3440 cd         1 6E6      -0.034200
     13 C2           0.0010     0.0000     2.3090 ca         1 6E6       0.681900
     14 NAY          3.4340    -0.0010     1.3310 nu         1 6E6      -0.472900
     15 CBI          4.1000    -0.0010     2.6370 c3         1 6E6       0.063500
     16 CAQ          4.2260    -1.4390     3.1470 c3         1 6E6      -0.035900
     17 CAS          4.9740    -1.4390     4.4810 c3         1 6E6       0.160300
     18 CAP          5.4970     0.6080     2.4990 c3         1 6E6      -0.035900
     19 CAR          6.2090     0.5500     3.8530 c3         1 6E6       0.160300
     20 NBJ          6.3060    -0.8470     4.2970 n3         1 6E6      -0.503600
     21 CAT          7.1050    -0.9550     5.5240 c3         1 6E6       0.186100
     22 CBA          8.5310    -0.5670     5.2310 ca         1 6E6      -0.149300
     23 CAL          8.9190     0.7350     5.3640 ca         1 6E6      -0.075000
     24 CAJ          9.4410    -1.5390     4.8350 ca         1 6E6      -0.065000
     25 CAK         10.7490    -1.2050     4.5620 ca         1 6E6      -0.084000
     26 CBH         11.1670     0.1170     4.6840 ca         1 6E6      -0.195200
     27 CBE         10.2430     1.0990     5.0920 ca         1 6E6      -0.073800
     28 CAM         10.9400     2.3310     5.1270 cc         1 6E6      -0.099200
     29 CBC         12.2260     2.0900     4.7540 cd         1 6E6      -0.124800
     30 CAH         13.2610     3.0750     4.6630 ch         1 6E6       0.217500
     31 NAA         14.0720     3.8690     4.6010 n1         1 6E6      -0.377800
     32 NBK         12.3760     0.7440     4.4880 na         1 6E6       0.407600
     33 CAV         13.6150     0.0920     4.0590 c3         1 6E6      -0.074700
     34 CBL         14.4020    -0.3680     5.2870 c3         1 6E6       0.100100
     35 OAD         13.6620    -1.3780     5.9770 oh         1 6E6      -0.555800
     36 CAO         15.7520    -0.9350     4.8460 c3         1 6E6       0.164400
     37 OAB         16.5340    -1.2560     5.9980 oh         1 6E6      -0.596800
     38 H1           2.2470     0.5080    -4.1300 hc         1 6E6       0.058700
     39 H2           0.6870     0.7310    -4.1680 hc         1 6E6       0.058700
     40 H3           2.9790    -0.0710    -1.6480 ha         1 6E6       0.126000
     41 H4          -0.2130     0.0480     3.3700 h5         1 6E6       0.019100
     42 H5           3.9630     0.3840     0.5730 hn         1 6E6       0.291800
     43 H6           3.5210     0.5820     3.3430 h1         1 6E6       0.049700
     44 H7           3.1840    -1.7340     3.1240 hc         1 6E6       0.029450
     45 H8           4.5600    -1.7970     2.1810 hc         1 6E6       0.029450
     46 H9           5.3350    -2.3300     4.9810 h1         1 6E6       0.022950
     47 H10          4.7810    -0.7930     5.3300 h1         1 6E6       0.022950
     48 H11          6.0110     0.2060     1.6340 hc         1 6E6       0.029450
     49 H12          5.0870     1.5890     2.2940 hc         1 6E6       0.029450
     50 H13          5.6320     1.3250     4.3430 h1         1 6E6       0.022950
     51 H14          7.0750     1.0260     3.4090 h1         1 6E6       0.022950
     52 H16          7.2850    -1.7850     6.1970 h1         1 6E6       0.024200
     53 H17          6.8600    -0.1620     6.2200 h1         1 6E6       0.024200
     54 H18          8.0060     1.2520     5.0920 ha         1 6E6       0.127000
     55 H19          9.0700    -2.5550     4.7720 ha         1 6E6       0.109000
     56 H20         11.3730    -1.9160     4.0320 ha         1 6E6       0.100000
     57 H21         10.6710     3.3760     5.0380 ha         1 6E6       0.133000
     58 H22         14.0440     0.7850     3.3450 h1         1 6E6       0.045200
     59 H23         13.1840    -0.7320     3.5040 h1         1 6E6       0.045200
     60 H24         14.5640     0.4750     5.9490 h1         1 6E6       0.049700
     61 H25         13.9910    -2.0960     5.4610 ho         1 6E6       0.396000
     62 H26         15.6050    -1.7130     4.1060 h1         1 6E6       0.039700
     63 H27         16.2590     0.0180     4.7630 h1         1 6E6       0.039700
     64 H28         16.1520    -0.8030     6.7320 ho         1 6E6       0.406000
     65 CAU          1.3670    -0.0160    -3.7780 c3         1 6E6       0.020800
@<TRIPOS>BOND
     1     1     2 ar  
     2     1     5 ar  
     3     1    11 1   
     4     2     3 ar  
     5     2    12 1   
     6     3     4 ar  
     7     3    14 1   
     8     4    13 ar  
     9     5    13 ar  
    10     6     7 1   
    11     7     8 1   
    12     7     9 1   
    13     7    65 1   
    14    10    11 1   
    15    10    12 2   
    16    10    65 1   
    17    12    40 1   
    18    13    41 1   
    19    14    15 1   
    20    14    42 1   
    21    15    16 1   
    22    15    18 1   
    23    15    43 1   
    24    16    17 1   
    25    16    44 1   
    26    16    45 1   
    27    17    20 1   
    28    17    46 1   
    29    17    47 1   
    30    18    19 1   
    31    18    48 1   
    32    18    49 1   
    33    19    20 1   
    34    19    50 1   
    35    19    51 1   
    36    20    21 1   
    37    21    22 1   
    38    21    52 1   
    39    21    53 1   
    40    22    23 ar  
    41    22    24 ar  
    42    23    27 ar  
    43    23    54 1   
    44    24    25 ar  
    45    24    55 1   
    46    25    26 ar  
    47    25    56 1   
    48    26    27 ar  
    49    26    32 1   
    50    27    28 1   
    51    28    29 2   
    52    28    57 1   
    53    29    30 1   
    54    29    32 1   
    55    30    31 3   
    56    32    33 1   
    57    33    34 1   
    58    33    58 1   
    59    33    59 1   
    60    34    35 1   
    61    34    36 1   
    62    34    60 1   
    63    35    61 1   
    64    36    37 1   
    65    36    62 1   
    66    36    63 1   
    67    37    64 1   
    68    38    65 1   
    69    39    65 1   
@<TRIPOS>SUBSTRUCTURE
     1 6E6         1 TEMP              0 ****  ****    0 ROOT
