@<TRIPOS>MOLECULE
molecule
   65    69     1     0     0
SMALL
bcc


@<TRIPOS>ATOM
      1 C4           0.0000     0.0000     0.0000 ca         1 6E6       0.555600
      2 C5           1.3980     0.0000     0.0000 ca         1 6E6      -0.381400
      3 C6           2.0530     0.0000     1.2590 ca         1 6E6       0.753200
      4 N1           1.3210    -0.0000     2.3620 nb         1 6E6      -0.843000
      5 N3          -0.6520    -0.0000     1.1690 nb         1 6E6      -0.737000
      6 FAE          0.5900    -2.4620    -4.1510 f          1 6E6      -0.239633
      7 CBM          1.4770    -1.4610    -4.2690 c3         1 6E6       0.648900
      8 FAF          2.4900    -2.1180    -3.5630 f          1 6E6      -0.239633
      9 FAG          1.7800    -1.4670    -5.6350 f          1 6E6      -0.239633
     10 CBB          1.0400    -0.0100    -2.3070 cc         1 6E6      -0.101600
     11 SAZ         -0.5890    -0.0070    -1.6560 ss         1 6E6      -0.110900
     12 CAN          1.9410    -0.0010    -1.3440 cd         1 6E6      -0.070200
     13 C2           0.0010     0.0000     2.3090 ca         1 6E6       0.730900
     14 NAY          3.4340    -0.0010     1.3310 nu         1 6E6      -0.876900
     15 CBI          4.1000    -0.0010     2.6370 c3         1 6E6       0.181500
     16 CAQ          4.2260    -1.4390     3.1470 c3         1 6E6      -0.093900
     17 CAS          4.9740    -1.4390     4.4810 c3         1 6E6       0.172800
     18 CAP          5.4970     0.6080     2.4990 c3         1 6E6      -0.093900
     19 CAR          6.2090     0.5500     3.8530 c3         1 6E6       0.172800
     20 NBJ          6.3060    -0.8470     4.2970 n3         1 6E6      -0.702600
     21 CAT          7.1050    -0.9550     5.5240 c3         1 6E6       0.188100
     22 CBA          8.5310    -0.5670     5.2310 ca         1 6E6      -0.135300
     23 CAL          8.9190     0.7350     5.3640 ca         1 6E6      -0.094000
     24 CAJ          9.4410    -1.5390     4.8350 ca         1 6E6      -0.088000
     25 CAK         10.7490    -1.2050     4.5620 ca         1 6E6      -0.126000
     26 CBH         11.1670     0.1170     4.6840 ca         1 6E6      -0.014200
     27 CBE         10.2430     1.0990     5.0920 ca         1 6E6      -0.085800
     28 CAM         10.9400     2.3310     5.1270 cd         1 6E6      -0.119200
     29 CBC         12.2260     2.0900     4.7540 cc         1 6E6       0.003200
     30 CAH         13.2610     3.0750     4.6630 cg         1 6E6       0.218500
     31 NAA         14.0720     3.8690     4.6010 n1         1 6E6      -0.353800
     32 NBK         12.3760     0.7440     4.4880 na         1 6E6      -0.059400
     33 CAV         13.6150     0.0920     4.0590 c3         1 6E6       0.018300
     34 CBL         14.4020    -0.3680     5.2870 c3         1 6E6       0.054100
     35 OAD         13.6620    -1.3780     5.9770 oh         1 6E6      -0.553800
     36 CAO         15.7520    -0.9350     4.8460 c3         1 6E6       0.092400
     37 OAB         16.5340    -1.2560     5.9980 oh         1 6E6      -0.607800
     38 H1           2.2470     0.5080    -4.1300 hc         1 6E6       0.094700
     39 H2           0.6870     0.7310    -4.1680 hc         1 6E6       0.094700
     40 H3           2.9790    -0.0710    -1.6480 ha         1 6E6       0.154000
     41 H4          -0.2130     0.0480     3.3700 h5         1 6E6       0.081100
     42 H5           3.9630     0.3840     0.5730 hn         1 6E6       0.438800
     43 H6           3.5210     0.5820     3.3430 h1         1 6E6       0.065700
     44 H7           3.1840    -1.7340     3.1240 hc         1 6E6       0.060950
     45 H8           4.5600    -1.7970     2.1810 hc         1 6E6       0.060950
     46 H9           5.3350    -2.3300     4.9810 h1         1 6E6       0.049200
     47 H10          4.7810    -0.7930     5.3300 h1         1 6E6       0.049200
     48 H11          6.0110     0.2060     1.6340 hc         1 6E6       0.060950
     49 H12          5.0870     1.5890     2.2940 hc         1 6E6       0.060950
     50 H13          5.6320     1.3250     4.3430 h1         1 6E6       0.049200
     51 H14          7.0750     1.0260     3.4090 h1         1 6E6       0.049200
     52 H16          7.2850    -1.7850     6.1970 h1         1 6E6       0.050200
     53 H17          6.8600    -0.1620     6.2200 h1         1 6E6       0.050200
     54 H18          8.0060     1.2520     5.0920 ha         1 6E6       0.146000
     55 H19          9.0700    -2.5550     4.7720 ha         1 6E6       0.138000
     56 H20         11.3730    -1.9160     4.0320 ha         1 6E6       0.125000
     57 H21         10.6710     3.3760     5.0380 ha         1 6E6       0.160000
     58 H22         14.0440     0.7850     3.3450 h1         1 6E6       0.072200
     59 H23         13.1840    -0.7320     3.5040 h1         1 6E6       0.072200
     60 H24         14.5640     0.4750     5.9490 h1         1 6E6       0.089700
     61 H25         13.9910    -2.0960     5.4610 ho         1 6E6       0.396000
     62 H26         15.6050    -1.7130     4.1060 h1         1 6E6       0.077200
     63 H27         16.2590     0.0180     4.7630 h1         1 6E6       0.077200
     64 H28         16.1520    -0.8030     6.7320 ho         1 6E6       0.414000
     65 CAU          1.3670    -0.0160    -3.7780 c3         1 6E6      -0.056200
@<TRIPOS>BOND
     1    31    30 3   
     2    30    29 1   
     3    33    32 1   
     4    33    34 1   
     5    29    32 1   
     6    29    28 2   
     7    32    26 1   
     8    65    10 1   
     9    65     7 1   
    10    28    27 1   
    11    10    11 1   
    12    10    12 2   
    13    11     1 1   
    14    36    34 1   
    15    36    37 1   
    16    26    27 ar  
    17    26    25 ar  
    18    12     2 1   
    19    27    23 ar  
    20    34    35 1   
    21    16    17 1   
    22    16    15 1   
    23     1     2 ar  
    24     1     5 ar  
    25     9     7 1   
    26     2     3 ar  
    27    17    20 1   
    28     5    13 ar  
    29    25    24 ar  
    30     7     6 1   
    31     7     8 1   
    32     3    14 1   
    33     3     4 ar  
    34    23    22 ar  
    35    14    15 1   
    36    13     4 ar  
    37    15    18 1   
    38    24    22 ar  
    39    22    21 1   
    40    20    21 1   
    41    20    19 1   
    42    18    19 1   
    43    65    38 1   
    44    65    39 1   
    45    12    40 1   
    46    13    41 1   
    47    14    42 1   
    48    15    43 1   
    49    16    44 1   
    50    16    45 1   
    51    17    46 1   
    52    17    47 1   
    53    18    48 1   
    54    18    49 1   
    55    19    50 1   
    56    19    51 1   
    57    21    52 1   
    58    21    53 1   
    59    23    54 1   
    60    24    55 1   
    61    25    56 1   
    62    28    57 1   
    63    33    58 1   
    64    33    59 1   
    65    34    60 1   
    66    35    61 1   
    67    36    62 1   
    68    36    63 1   
    69    37    64 1   
@<TRIPOS>SUBSTRUCTURE
     1 6E6         1 TEMP              0 ****  ****    0 ROOT
