@<TRIPOS>MOLECULE
6E7
   42    44     1     0     0
SMALL
bcc


@<TRIPOS>ATOM
      1 C10          0.0000     0.0000     0.0000 cp         1 6E7       0.352300
      2 C13          1.3090    -0.0010     2.3980 ca         1 6E7      -0.239300
      3 C20          6.1060     0.0000     3.9720 c3         1 6E7       0.016900
      4 C21          7.6130     0.0000     4.0220 ca         1 6E7      -0.085300
      5 C22          8.3040    -1.1960     4.0410 ca         1 6E7      -0.094000
      6 C24         10.3760     0.0020     4.1170 ca         1 6E7      -0.106000
      7 C26          8.3030     1.1980     4.0470 ca         1 6E7      -0.094000
      8 O01         -4.9250    -0.0000    -1.5320 o          1 6E7      -0.875800
      9 O03         -4.9150     0.0010    -3.7510 o          1 6E7      -0.875800
     10 C04         -2.8030    -0.0000    -2.5110 ca         1 6E7      -0.087600
     11 C05         -2.0430     0.0010    -3.6870 ca         1 6E7      -0.166300
     12 C06         -0.6640     0.0010    -3.5990 ca         1 6E7       0.346200
     13 N07         -0.0590     0.0010    -2.4300 nb         1 6E7      -0.597000
     14 C08         -0.7350     0.0010    -1.2890 cp         1 6E7       0.243300
     15 C09         -2.1270     0.0060    -1.2890 ca         1 6E7      -0.143300
     16 C11          1.3930     0.0000     0.0000 ca         1 6E7      -0.132300
     17 C12          2.0680     0.0000     1.2210 ca         1 6E7      -0.141600
     18 C14         -0.0700     0.0100     2.3090 ca         1 6E7       0.392200
     19 N15         -0.6760     0.0050     1.1410 nb         1 6E7      -0.546000
     20 C16          3.5480    -0.0000     1.2730 c          1 6E7       0.600700
     21 O17          4.1920     0.0000     0.2410 o          1 6E7      -0.643100
     22 N18          4.1830    -0.0000     2.4620 ns         1 6E7      -0.213900
     23 C19          5.6460    -0.0000     2.5120 c3         1 6E7       0.054000
     24 C23          9.6850    -1.1960     4.0880 ca         1 6E7      -0.099000
     25 C25          9.6850     1.1980     4.0950 ca         1 6E7      -0.099000
     26 H1           1.7970     0.0010     3.3650 ha         1 6E7       0.099000
     27 H2           5.7280    -0.8840     4.4700 hc         1 6E7       0.019200
     28 H3           5.7280     0.8850     4.4690 hc         1 6E7       0.019200
     29 H4           7.7630    -2.1340     4.0180 ha         1 6E7       0.107000
     30 H5          11.4580     0.0020     4.1540 ha         1 6E7       0.099000
     31 H6           7.7620     2.1360     4.0290 ha         1 6E7       0.107000
     32 H8          -2.5300     0.0010    -4.6540 ha         1 6E7       0.135000
     33 H9          -0.0720     0.0020    -4.5060 h4         1 6E7      -0.035900
     34 H10         -2.6680     0.2050    -0.3720 ha         1 6E7       0.145000
     35 H11          1.9430     0.0010    -0.9330 ha         1 6E7       0.156000
     36 H12         -0.6630     0.0110     3.2160 h4         1 6E7      -0.025900
     37 H13          3.6530    -0.0000     3.3110 hn         1 6E7       0.179500
     38 H14          6.0240    -0.8850     2.0140 h1         1 6E7       0.028700
     39 H15          6.0240     0.8840     2.0140 h1         1 6E7       0.028700
     40 H16         10.2260    -2.1340     4.1040 ha         1 6E7       0.101000
     41 H17         10.2260     2.1360     4.1160 ha         1 6E7       0.101000
     42 C02         -4.2820     0.0010    -2.5620 c          1 6E7       0.972200
@<TRIPOS>BOND
     1     1    14 1   
     2     1    16 ar  
     3     1    19 ar  
     4     2    17 ar  
     5     2    18 ar  
     6     2    26 1   
     7     3     4 1   
     8     3    23 1   
     9     3    27 1   
    10     3    28 1   
    11     4     5 ar  
    12     4     7 ar  
    13     5    24 ar  
    14     5    29 1   
    15     6    24 ar  
    16     6    25 ar  
    17     6    30 1   
    18     7    25 ar  
    19     7    31 1   
    20     8    42 1   
    21     9    42 1   
    22    10    11 ar  
    23    10    15 ar  
    24    10    42 1   
    25    11    12 ar  
    26    11    32 1   
    27    12    13 ar  
    28    12    33 1   
    29    13    14 ar  
    30    14    15 ar  
    31    15    34 1   
    32    16    17 ar  
    33    16    35 1   
    34    17    20 1   
    35    18    19 ar  
    36    18    36 1   
    37    20    21 2   
    38    20    22 1   
    39    22    23 1   
    40    22    37 1   
    41    23    38 1   
    42    23    39 1   
    43    24    40 1   
    44    25    41 1   
@<TRIPOS>SUBSTRUCTURE
     1 6E7         1 TEMP              0 ****  ****    0 ROOT
