@<TRIPOS>MOLECULE
molecule
   28    29     1     0     0
SMALL
bcc


@<TRIPOS>ATOM
      1 C10          0.0000     0.0000     0.0000 cc         1 6E8       0.400200
      2 N12          0.6930    -0.0060     2.0940 n          1 6E8       0.094300
      3 C13          0.7920    -0.0090     3.4390 c          1 6E8       0.632500
      4 C15          2.2630    -0.0000    -1.1520 cg         1 6E8       0.263800
      5 C01          1.5520     1.2560     6.1150 c3         1 6E8      -0.324100
      6 C03          1.4590    -1.2410     6.1170 c3         1 6E8      -0.324100
      7 C04          2.0640    -0.0150     4.0480 cd         1 6E8      -0.257400
      8 C05          3.1760    -0.0180     3.2780 cc         1 6E8       0.242800
      9 C06          4.5390    -0.0270     3.9200 c3         1 6E8      -0.089900
     10 N07          3.0610    -0.0160     1.9200 na         1 6E8      -0.597400
     11 C08          1.8200     0.0000     1.3310 cd         1 6E8       0.146300
     12 C09          1.4120     0.0000     0.0000 cc         1 6E8      -0.266300
     13 N11         -0.4140     0.0000     1.2370 nd         1 6E8      -0.463800
     14 O14         -0.2140    -0.0040     4.1260 o          1 6E8      -0.568500
     15 N16          2.9250    -0.0120    -2.0750 n1         1 6E8      -0.366800
     16 H1          -0.7290     0.3980    -0.6950 h4         1 6E8       0.073100
     17 H2           1.0820     1.0000     7.0560 hc         1 6E8       0.113867
     18 H3           0.8220     1.3870     5.3250 hc         1 6E8       0.113867
     19 H4           2.1270     0.3530     6.2800 hc         1 6E8       0.113867
     20 H5           3.1540     0.2410     5.9560 hc         1 6E8       0.092700
     21 H6           0.4390    -0.9260     5.9330 hc         1 6E8       0.113867
     22 H7           1.6420    -1.3150     7.1820 hc         1 6E8       0.113867
     23 H8           2.0660    -1.9960     5.6330 hc         1 6E8       0.113867
     24 H9           4.4080     0.8360     4.5610 hc         1 6E8       0.074700
     25 H10          4.7180    -0.9490     4.4600 hc         1 6E8       0.074700
     26 H11          5.4870     0.0220     3.3990 hc         1 6E8       0.074700
     27 H12          3.5870    -0.2310     1.0960 hn         1 6E8       0.493800
     28 C02          2.1840    -0.0180     5.5500 c3         1 6E8      -0.089500
@<TRIPOS>BOND
     1    15     4 3
     2     4    12 1
     3    12    11 2
     4    12     1 1
     5    10    11 1
     6    10     8 1
     7     9     8 1
     8    11     2 1
     9     1    13 2
    10     8     7 2
    11     2    13 1
    12     2     3 1
    13     7     3 1
    14     7    28 1
    15     3    14 2
    16    28     6 1
    17    28     5 1
    18     1    16 1
    19     5    17 1
    20     5    18 1
    21     5    19 1
    22    28    20 1
    23     6    21 1
    24     6    22 1
    25     6    23 1
    26     9    24 1
    27     9    25 1
    28     9    26 1
    29    10    27 1
@<TRIPOS>SUBSTRUCTURE
     1 6E8         1 TEMP              0 ****  ****    0 ROOT
