@<TRIPOS>MOLECULE
6E8
   28    30     1     0     0
SMALL
bcc


@<TRIPOS>ATOM
      1 C10          0.0000     0.0000     0.0000 c2         1 6E8      -0.009000
      2 N12          0.6930    -0.0060     2.0940 n          1 6E8       0.305000
      3 C13          0.7920    -0.0090     3.4390 c2         1 6E8       0.281000
      4 C15          2.2630    -0.0000    -1.1520 c1         1 6E8      -0.068000
      5 C01          1.5520     1.2560     6.1150 c3         1 6E8      -0.588000
      6 C03          1.4590    -1.2410     6.1170 c3         1 6E8      -0.168000
      7 C04          2.0640    -0.0150     4.0480 c2         1 6E8      -0.253000
      8 C05          3.1760    -0.0180     3.2780 c2         1 6E8      -0.020000
      9 C06          4.5390    -0.0270     3.9200 c3         1 6E8      -0.106000
     10 N07          3.0610    -0.0160     1.9200 na         1 6E8       0.284000
     11 C08          1.8200     0.0000     1.3310 c2         1 6E8      -0.238000
     12 C09          1.4120     0.0000     0.0000 c2         1 6E8      -0.148000
     13 N11         -0.4140     0.0000     1.2370 n2         1 6E8      -0.173000
     14 O14         -0.2140    -0.0040     4.1260 o          1 6E8      -0.335000
     15 N16          2.9250    -0.0120    -2.0750 n1         1 6E8      -0.059000
     16 H1          -0.7290     0.3980    -0.6950 h4         1 6E8       0.160000
     17 H2           1.0820     1.0000     7.0560 hc         1 6E8       0.087500
     18 H3           0.8220     1.3870     5.3250 hc         1 6E8       0.087500
     19 H4           2.1270     0.3530     6.2800 DU         1 6E8       0.350000
     20 H5           3.1540     0.2410     5.9560 ha         1 6E8       0.106000
     21 H6           0.4390    -0.9260     5.9330 hc         1 6E8       0.082667
     22 H7           1.6420    -1.3150     7.1820 hc         1 6E8       0.082667
     23 H8           2.0660    -1.9960     5.6330 hc         1 6E8       0.082667
     24 H9           4.4080     0.8360     4.5610 hc         1 6E8       0.075333
     25 H10          4.7180    -0.9490     4.4600 hc         1 6E8       0.075333
     26 H11          5.4870     0.0220     3.3990 hc         1 6E8       0.075333
     27 H12          3.5870    -0.2310     1.0960 hn         1 6E8       0.113000
     28 C02          2.1840    -0.0180     5.5500 DU         1 6E8      -0.083000
@<TRIPOS>BOND
     1     1    12 1   
     2     1    13 1   
     3     1    16 1   
     4     2     3 1   
     5     2    11 1   
     6     2    13 1   
     7     3     7 1   
     8     3    14 1   
     9     4    12 1   
    10     4    15 1   
    11     5    17 1   
    12     5    18 1   
    13     5    19 1   
    14     5    28 1   
    15     6    21 1   
    16     6    22 1   
    17     6    23 1   
    18     6    28 1   
    19     7     8 1   
    20     7    28 1   
    21     8     9 1   
    22     8    10 1   
    23     9    24 1   
    24     9    25 1   
    25     9    26 1   
    26    10    11 1   
    27    10    27 1   
    28    11    12 1   
    29    19    28 1   
    30    20    28 1   
@<TRIPOS>SUBSTRUCTURE
     1 6E8         1 TEMP              0 ****  ****    0 ROOT
