@<TRIPOS>MOLECULE
molecule
   40    42     1     0     0
SMALL
bcc


@<TRIPOS>ATOM
      1 N1           0.0000     0.0000     0.0000 ns         1 6E9      -0.452100
      2 C2           8.0000     2.7320    -1.4650 ca         1 6E9      -0.160000
      3 C4           4.1650     0.0030    -0.0250 ca         1 6E9      -0.312500
      4 C5           3.4610     0.0020    -1.2160 ca         1 6E9      -0.023000
      5 C6           2.0800     0.0030    -1.2070 ca         1 6E9      -0.167000
      6 C7           1.3920     0.0000     0.0000 ca         1 6E9       0.078600
      7 C8          -0.6760    -0.0020     1.1670 c          1 6E9       0.629500
      8 C9           0.0830    -0.0090     2.4510 c          1 6E9       0.629500
      9 C10          2.1030     0.0000     1.2020 ca         1 6E9       0.001600
     10 C11          3.4930     0.0020     1.1810 ca         1 6E9      -0.041000
     11 C12          6.5240     2.3230     1.2080 c3         1 6E9       0.230100
     12 C13          5.7660     2.3230    -2.2550 ca         1 6E9      -0.184000
     13 C14          6.0750     2.9450    -3.4490 ca         1 6E9      -0.070000
     14 C15          7.3370     3.4720    -3.6510 ca         1 6E9      -0.223000
     15 O1           6.3430    -0.5420     1.1990 o          1 6E9      -0.620800
     16 S            5.9270     0.0020    -0.0460 sy         1 6E9       1.426200
     17 O4           6.3130    -0.5420    -1.3000 o          1 6E9      -0.620800
     18 N            6.4170     1.5840    -0.0520 nh         1 6E9      -0.686900
     19 C3           6.7290     2.2140    -1.2590 ca         1 6E9       0.184600
     20 C1           8.3030     3.3610    -2.6620 ca         1 6E9       0.157100
     21 O            9.5470     3.8700    -2.8660 os         1 6E9      -0.326900
     22 C            9.7890     4.5050    -4.1220 c3         1 6E9       0.128700
     23 O3          -1.8910     0.0020     1.1720 o          1 6E9      -0.555500
     24 N2           1.4300    -0.0130     2.4220 ns         1 6E9      -0.451100
     25 O2          -0.5080    -0.0110     3.5120 o          1 6E9      -0.560500
     26 H1          -0.5000     0.0040    -0.8670 hn         1 6E9       0.348500
     27 H2           8.7530     2.6470    -0.6900 ha         1 6E9       0.152000
     28 H3           3.9950     0.0030    -2.1580 ha         1 6E9       0.163000
     29 H4           1.5340     0.0020    -2.1430 ha         1 6E9       0.147000
     30 H5           4.0480     0.0020     2.1110 ha         1 6E9       0.158000
     31 H6           6.0920     3.3080     1.0870 h1         1 6E9       0.047367
     32 H7           5.9920     1.7880     1.9860 h1         1 6E9       0.047367
     33 H8           7.5680     2.4170     1.4840 h1         1 6E9       0.047367
     34 H9           4.7750     1.9150    -2.0980 ha         1 6E9       0.129000
     35 H10          5.3240     3.0310    -4.2240 ha         1 6E9       0.134000
     36 H11          7.5760     3.9620    -4.5880 ha         1 6E9       0.138000
     37 H12          9.0690     5.3010    -4.2690 h1         1 6E9       0.043033
     38 H13         10.7910     4.9190    -4.1300 h1         1 6E9       0.043033
     39 H14          9.6930     3.7780    -4.9190 h1         1 6E9       0.043033
     40 H15          1.9480    -0.0180     3.2780 hn         1 6E9       0.348500
@<TRIPOS>BOND
     1    22    21 1
     2    21    20 1
     3    20    14 ar
     4    20     2 ar
     5    14    13 ar
     6     2    19 ar
     7    13    12 ar
     8    19    12 ar
     9    19    18 1
    10    17    16 2
    11    18    16 1
    12    18    11 1
    13    15    16 2
    14    16     3 1
    15     3     4 ar
    16     3    10 ar
    17     4     5 ar
    18    10     9 ar
    19     5     6 ar
    20     9     6 ar
    21     9    24 1
    22     6     1 1
    23    24     8 1
    24     1     7 1
    25     8     7 1
    26     8    25 2
    27     7    23 2
    28     1    26 1
    29     2    27 1
    30     4    28 1
    31     5    29 1
    32    10    30 1
    33    11    31 1
    34    11    32 1
    35    11    33 1
    36    12    34 1
    37    13    35 1
    38    14    36 1
    39    22    37 1
    40    22    38 1
    41    22    39 1
    42    24    40 1
@<TRIPOS>SUBSTRUCTURE
     1 6E9         1 TEMP              0 ****  ****    0 ROOT
