@<TRIPOS>MOLECULE
6E9
   40    42     1     0     0
SMALL
bcc


@<TRIPOS>ATOM
      1 N1           0.0000     0.0000     0.0000 ns         1 6E9      -0.004100
      2 C2           8.0000     2.7320    -1.4650 ca         1 6E9      -0.153000
      3 C4           4.1650     0.0030    -0.0250 ca         1 6E9      -0.158500
      4 C5           3.4610     0.0020    -1.2160 ca         1 6E9       0.010000
      5 C6           2.0800     0.0030    -1.2070 ca         1 6E9      -0.146000
      6 C7           1.3920     0.0000     0.0000 ca         1 6E9      -0.069400
      7 C8          -0.6760    -0.0020     1.1670 c          1 6E9       0.523500
      8 C9           0.0830    -0.0090     2.4510 c          1 6E9       0.522500
      9 C10          2.1030     0.0000     1.2020 ca         1 6E9      -0.152400
     10 C11          3.4930     0.0020     1.1810 ca         1 6E9      -0.004000
     11 C12          6.5240     2.3230     1.2080 c3         1 6E9       0.267100
     12 C13          5.7660     2.3230    -2.2550 ca         1 6E9      -0.174000
     13 C14          6.0750     2.9450    -3.4490 ca         1 6E9      -0.033000
     14 C15          7.3370     3.4720    -3.6510 ca         1 6E9      -0.218000
     15 O1           6.3430    -0.5420     1.1990 o          1 6E9      -0.577300
     16 S            5.9270     0.0020    -0.0460 sy         1 6E9       1.052200
     17 O4           6.3130    -0.5420    -1.3000 o          1 6E9      -0.577300
     18 N            6.4170     1.5840    -0.0520 nh         1 6E9      -0.372900
     19 C3           6.7290     2.2140    -1.2590 ca         1 6E9       0.124600
     20 C1           8.3030     3.3610    -2.6620 ca         1 6E9       0.170100
     21 O            9.5470     3.8700    -2.8660 os         1 6E9      -0.307900
     22 C            9.7890     4.5050    -4.1220 c3         1 6E9       0.245700
     23 O3          -1.8910     0.0020     1.1720 o          1 6E9      -0.595500
     24 N2           1.4300    -0.0130     2.4220 ns         1 6E9      -0.000100
     25 O2          -0.5080    -0.0110     3.5120 o          1 6E9      -0.601500
     26 H1          -0.5000     0.0040    -0.8670 hn         1 6E9       0.187500
     27 H2           8.7530     2.6470    -0.6900 ha         1 6E9       0.125000
     28 H3           3.9950     0.0030    -2.1580 ha         1 6E9       0.134000
     29 H4           1.5340     0.0020    -2.1430 ha         1 6E9       0.119000
     30 H5           4.0480     0.0020     2.1110 ha         1 6E9       0.132000
     31 H6           6.0920     3.3080     1.0870 h1         1 6E9       0.005700
     32 H7           5.9920     1.7880     1.9860 h1         1 6E9       0.005700
     33 H8           7.5680     2.4170     1.4840 h1         1 6E9       0.005700
     34 H9           4.7750     1.9150    -2.0980 ha         1 6E9       0.109000
     35 H10          5.3240     3.0310    -4.2240 ha         1 6E9       0.099000
     36 H11          7.5760     3.9620    -4.5880 ha         1 6E9       0.122000
     37 H12          9.0690     5.3010    -4.2690 h1         1 6E9      -0.001967
     38 H13         10.7910     4.9190    -4.1300 h1         1 6E9      -0.001967
     39 H14          9.6930     3.7780    -4.9190 h1         1 6E9      -0.001967
     40 H15          1.9480    -0.0180     3.2780 hn         1 6E9       0.187500
@<TRIPOS>BOND
     1     1     6 1   
     2     1     7 1   
     3     1    26 1   
     4     2    19 ar  
     5     2    20 ar  
     6     2    27 1   
     7     3     4 ar  
     8     3    10 ar  
     9     3    16 1   
    10     4     5 ar  
    11     4    28 1   
    12     5     6 ar  
    13     5    29 1   
    14     6     9 ar  
    15     7     8 1   
    16     7    23 2   
    17     8    24 1   
    18     8    25 2   
    19     9    10 ar  
    20     9    24 1   
    21    10    30 1   
    22    11    18 1   
    23    11    31 1   
    24    11    32 1   
    25    11    33 1   
    26    12    13 ar  
    27    12    19 ar  
    28    12    34 1   
    29    13    14 ar  
    30    13    35 1   
    31    14    20 ar  
    32    14    36 1   
    33    15    16 2   
    34    16    17 2   
    35    16    18 1   
    36    18    19 1   
    37    20    21 1   
    38    21    22 1   
    39    22    37 1   
    40    22    38 1   
    41    22    39 1   
    42    24    40 1   
@<TRIPOS>SUBSTRUCTURE
     1 6E9         1 TEMP              0 ****  ****    0 ROOT
