@<TRIPOS>MOLECULE
6EA
   52    56     1     0     0
SMALL
bcc


@<TRIPOS>ATOM
      1 N1           0.0000     0.0000     0.0000 nb         1 6EA      -0.560000
      2 C2           1.3190     0.0000     0.0000 ca         1 6EA       0.406700
      3 C3           2.0280     0.0000     1.1850 ca         1 6EA      -0.192800
      4 C4           1.3260    -0.0010     2.3940 cp         1 6EA      -0.152500
      5 C5          -0.0710    -0.0070     2.3470 ca         1 6EA      -0.192800
      6 C6          -0.6990    -0.0010     1.1180 ca         1 6EA       0.406700
      7 C11          2.0450    -0.0010     3.6920 cp         1 6EA       0.481800
      8 C12          1.5560    -0.7900     4.7450 ca         1 6EA      -0.192300
      9 C13          2.2070    -0.8000     5.9450 ca         1 6EA      -0.084000
     10 C14          3.3630    -0.0130     6.0780 ca         1 6EA      -0.136300
     11 C15          3.8050     0.7670     4.9770 ca         1 6EA       0.296300
     12 N16          3.1280     0.7390     3.8280 nb         1 6EA      -0.529000
     13 C19          4.0980     0.0460     7.2780 ca         1 6EA       0.052800
     14 C20          5.2180     0.8480     7.3260 ca         1 6EA       0.228200
     15 N21          5.6050     1.5590     6.2780 nb         1 6EA      -0.606000
     16 C22          4.9610     1.5530     5.1340 ca         1 6EA       0.376900
     17 O25          3.7140    -0.6770     8.3630 os         1 6EA      -0.309900
     18 C26          4.6610    -0.4040     9.3980 c3         1 6EA       0.170400
     19 C27          4.2850    -1.1910    10.6540 c3         1 6EA      -0.083500
     20 N30          4.4080    -2.6290    10.3860 nz         1 6EA       0.056400
     21 C31          5.2240    -0.8030    11.7990 c3         1 6EA       0.084800
     22 C33          4.7780    -1.4850    13.0660 cc         1 6EA      -0.274400
     23 C36          3.9840    -0.9650    14.0160 cd         1 6EA      -0.197100
     24 N37          3.7980    -1.8770    15.0190 na         1 6EA       0.392600
     25 C38          4.4850    -3.0360    14.7320 ca         1 6EA      -0.220200
     26 C39          5.1250    -2.8430    13.4940 ca         1 6EA      -0.118800
     27 C43          4.6340    -4.2490    15.3950 ca         1 6EA      -0.064000
     28 C44          5.4080    -5.2430    14.8350 ca         1 6EA      -0.073000
     29 C45          6.0410    -5.0460    13.6170 ca         1 6EA      -0.079000
     30 C46          5.9090    -3.8610    12.9490 ca         1 6EA      -0.117000
     31 H2           1.8530     0.0010    -0.9420 h4         1 6EA      -0.013400
     32 H3           3.1110     0.0020     1.1780 ha         1 6EA       0.119000
     33 H5          -0.6520    -0.0080     3.2620 ha         1 6EA       0.119000
     34 H6          -1.7810    -0.0030     1.0720 h4         1 6EA      -0.013400
     35 H12          0.8400    -1.6030     4.7260 ha         1 6EA       0.127000
     36 H13          1.6550    -1.4130     6.6470 ha         1 6EA       0.118000
     37 H20          6.0430     1.2870     7.8730 h4         1 6EA       0.062100
     38 H22          5.4360     2.2100     4.4160 h4         1 6EA       0.009100
     39 H261         5.6500    -0.6990     9.0690 h1         1 6EA       0.046200
     40 H262         4.6560     0.6560     9.6210 h1         1 6EA       0.046200
     41 H27          3.2630    -0.9620    10.9320 hx         1 6EA       0.097700
     42 H301         3.9670    -3.1450    11.1210 hn         1 6EA       0.232800
     43 H302         3.9650    -2.8450     9.5150 hn         1 6EA       0.232800
     44 H311         5.1980     0.2710    11.9390 hc         1 6EA       0.047700
     45 H312         6.2340    -1.1120    11.5580 hc         1 6EA       0.047700
     46 H36          3.5560     0.0300    13.9920 h4         1 6EA       0.151000
     47 H37          3.2440    -1.7250    15.8390 hn         1 6EA       0.132700
     48 H43          4.1430    -4.4130    16.3470 ha         1 6EA       0.117000
     49 H44          5.5220    -6.1880    15.3530 ha         1 6EA       0.121000
     50 H45          6.6460    -5.8380    13.1920 ha         1 6EA       0.115000
     51 H46          6.4060    -3.7140    11.9980 ha         1 6EA       0.078000
     52 H303         5.3750    -2.8690    10.2890 hn         1 6EA       0.232800
@<TRIPOS>BOND
     1     1     2 ar  
     2     1     6 ar  
     3     2     3 ar  
     4     2    31 1   
     5     3     4 ar  
     6     3    32 1   
     7     4     5 ar  
     8     4     7 1   
     9     5     6 ar  
    10     5    33 1   
    11     6    34 1   
    12     7     8 ar  
    13     7    12 ar  
    14     8     9 ar  
    15     8    35 1   
    16     9    10 ar  
    17     9    36 1   
    18    10    11 ar  
    19    10    13 ar  
    20    11    12 ar  
    21    11    16 ar  
    22    13    14 ar  
    23    13    17 1   
    24    14    15 ar  
    25    14    37 1   
    26    15    16 ar  
    27    16    38 1   
    28    17    18 1   
    29    18    19 1   
    30    18    39 1   
    31    18    40 1   
    32    19    20 1   
    33    19    21 1   
    34    19    41 1   
    35    20    42 1   
    36    20    43 1   
    37    20    52 1   
    38    21    22 1   
    39    21    44 1   
    40    21    45 1   
    41    22    23 2   
    42    22    26 1   
    43    23    24 1   
    44    23    46 1   
    45    24    25 1   
    46    24    47 1   
    47    25    26 ar  
    48    25    27 ar  
    49    26    30 ar  
    50    27    28 ar  
    51    27    48 1   
    52    28    29 ar  
    53    28    49 1   
    54    29    30 ar  
    55    29    50 1   
    56    30    51 1   
@<TRIPOS>SUBSTRUCTURE
     1 6EA         1 TEMP              0 ****  ****    0 ROOT
