@<TRIPOS>MOLECULE
molecule
   39    41     1     0     0
SMALL
bcc


@<TRIPOS>ATOM
      1 C10          0.0000     0.0000     0.0000 ca         1 6EB       0.926300
      2 C13         -2.6260    -0.0050    -2.5780 c3         1 6EB      -0.090400
      3 C15         -4.7050    -0.0110    -3.9650 c3         1 6EB       0.617900
      4 C20         -0.1470    -0.0050     2.3090 ca         1 6EB       0.727600
      5 C22          1.2650    -0.0000     2.3690 ca         1 6EB      -0.301600
      6 C24          3.3420     0.0040     3.5360 ca         1 6EB       0.396200
      7 N02          5.8230     0.2710    -1.4730 na         1 6EB      -0.194900
      8 C03          4.7620    -0.3010    -2.0970 cc         1 6EB       0.389400
      9 N04          3.7990    -0.4600    -1.2340 nd         1 6EB      -0.640000
     10 C05          4.2020    -0.0010    -0.0300 cd         1 6EB       0.250300
     11 C06          5.4760     0.4580    -0.1670 cc         1 6EB      -0.218600
     12 C07          3.4040    -0.0010     1.2150 ca         1 6EB       0.389000
     13 C08          1.9920     0.0000     1.1540 ca         1 6EB       0.385300
     14 N09          1.3180     0.0000     0.0000 nb         1 6EB      -0.696000
     15 O11         -0.6470     0.0000    -1.1890 os         1 6EB      -0.405100
     16 C12         -2.0770    -0.0060    -1.1500 c3         1 6EB       0.154400
     17 C14         -4.1550    -0.0110    -2.5360 c3         1 6EB      -0.130400
     18 F16         -4.2610     1.1350    -4.6340 f          1 6EB      -0.226300
     19 F17         -4.2520    -1.1500    -4.6380 f          1 6EB      -0.226300
     20 F18         -6.1020    -0.0160    -3.9260 f          1 6EB      -0.226300
     21 N19         -0.7210    -0.0040     1.1170 nb         1 6EB      -0.864000
     22 O21         -0.8910    -0.0100     3.4390 oh         1 6EB      -0.609300
     23 C23          1.9760    -0.0000     3.5770 ca         1 6EB      -0.201300
     24 N25          4.0070     0.0090     2.3920 nb         1 6EB      -0.677000
     25 H1          -2.2820     0.8820    -3.0970 hc         1 6EB       0.073700
     26 H2           3.8960     0.0120     4.4670 h4         1 6EB       0.026100
     27 H3           7.6150     1.3520    -1.4740 h1         1 6EB       0.054367
     28 H4           7.7200    -0.2710    -2.1700 h1         1 6EB       0.054367
     29 H5           6.9350     1.0300    -3.0750 h1         1 6EB       0.054367
     30 H6           4.7220    -0.5800    -3.1440 h5         1 6EB       0.067100
     31 H7           6.0940     0.8930     0.6090 h4         1 6EB       0.187000
     32 H8          -2.4270     0.8760    -0.6270 h1         1 6EB       0.048200
     33 H9          -2.4200    -0.8930    -0.6320 h1         1 6EB       0.048200
     34 H10         -4.4990    -0.8970    -2.0170 hc         1 6EB       0.079700
     35 H12          1.4530    -0.0050     4.5260 ha         1 6EB       0.151000
     36 H13         -2.2760    -0.8870    -3.1000 hc         1 6EB       0.073700
     37 H14         -4.5060     0.8720    -2.0140 hc         1 6EB       0.079700
     38 H11         -1.4900     0.7180     3.4250 ho         1 6EB       0.444000
     39 C01          7.1070     0.6180    -2.0880 c3         1 6EB       0.032600
@<TRIPOS>BOND
     1     8     7 1   
     2     8     9 2   
     3    39     7 1   
     4     7    11 1   
     5     9    10 1   
     6    11    10 2   
     7    10    12 1   
     8    24    12 ar  
     9    24     6 ar  
    10    12    13 ar  
    11     6    23 ar  
    12    13    14 ar  
    13    13     5 ar  
    14    14     1 ar  
    15    20     3 1   
    16    23     5 ar  
    17    16     2 1   
    18    16    15 1   
    19     5     4 ar  
    20    17     2 1   
    21    17     3 1   
    22     1    15 1   
    23     1    21 ar  
    24     3    19 1   
    25     3    18 1   
    26     4    21 ar  
    27     4    22 1   
    28     2    25 1   
    29     6    26 1   
    30    39    27 1   
    31    39    28 1   
    32    39    29 1   
    33     8    30 1   
    34    11    31 1   
    35    16    32 1   
    36    16    33 1   
    37    17    34 1   
    38    23    35 1   
    39     2    36 1   
    40    17    37 1   
    41    22    38 1   
@<TRIPOS>SUBSTRUCTURE
     1 6EB         1 TEMP              0 ****  ****    0 ROOT
