@<TRIPOS>MOLECULE
6EC
   41    43     1     0     0
SMALL
bcc


@<TRIPOS>ATOM
      1 OAX          0.0000     0.0000     0.0000 o          1 6EC      -0.874800
      2 CAW          1.3480     0.0000     0.0000 c          1 6EC       0.971200
      3 OAY          1.9550     0.0000     1.0530 o          1 6EC      -0.874800
      4 CAS          2.0850    -0.0000    -1.2760 ca         1 6EC      -0.112600
      5 CAR          1.3910     0.0050    -2.4880 ca         1 6EC      -0.033000
      6 CAT          3.4860    -0.0010    -1.2800 ca         1 6EC       0.151100
      7 OAZ          4.1710    -0.0020    -0.1070 oh         1 6EC      -0.440100
      8 CAU          4.1740    -0.0010    -2.4840 ca         1 6EC      -0.206000
      9 CAV          3.4810     0.0010    -3.6770 ca         1 6EC      -0.130000
     10 CAQ          2.0900     0.0060    -3.6830 ca         1 6EC      -0.159400
     11 NAO          1.3940     0.0110    -4.9000 ns         1 6EC      -0.037100
     12 CAN          0.2150     0.6550    -5.0000 c          1 6EC       0.539100
     13 OAP         -0.2000     1.3120    -4.0630 o          1 6EC      -0.652100
     14 NAM         -0.5030     0.5750    -6.1370 ns         1 6EC      -0.073100
     15 CAI         -1.6720     1.3290    -6.2810 ca         1 6EC      -0.049400
     16 CAH         -1.7680     2.5800    -5.6900 ca         1 6EC      -0.099000
     17 CAJ         -2.7350     0.8290    -7.0220 ca         1 6EC      -0.149000
     18 CAK         -3.8920     1.5720    -7.1680 ca         1 6EC      -0.088000
     19 CAL         -3.9960     2.8160    -6.5790 ca         1 6EC      -0.125000
     20 CAG         -2.9320     3.3280    -5.8370 cp         1 6EC      -0.014000
     21 CAC         -3.0410     4.6670    -5.2070 cp         1 6EC       0.000000
     22 CAB         -1.9770     5.1830    -4.4710 ca         1 6EC      -0.094500
     23 CAA         -2.0820     6.4310    -3.8920 ca         1 6EC      -0.115500
     24 CAF         -3.2410     7.1700    -4.0400 ca         1 6EC      -0.110000
     25 CAE         -4.3020     6.6640    -4.7700 ca         1 6EC      -0.115500
     26 CAD         -4.2070     5.4160    -5.3540 ca         1 6EC      -0.094500
     27 H2           0.3070     0.0090    -2.4930 ha         1 6EC       0.168000
     28 H3           4.8030    -0.7020    -0.1130 ho         1 6EC       0.368000
     29 H4           5.2570    -0.0030    -2.4880 ha         1 6EC       0.092000
     30 H5           4.0240     0.0010    -4.6150 ha         1 6EC       0.081000
     31 H6           1.7670    -0.4760    -5.6910 hn         1 6EC       0.141500
     32 H7          -0.1810     0.0030    -6.8930 hn         1 6EC       0.153500
     33 H8          -0.9380     2.9740    -5.1150 ha         1 6EC       0.157000
     34 H9          -2.6580    -0.1470    -7.4870 ha         1 6EC       0.099000
     35 H10         -4.7190     1.1760    -7.7450 ha         1 6EC       0.093000
     36 H11         -4.9040     3.3950    -6.6940 ha         1 6EC       0.104000
     37 H12         -1.0470     4.6310    -4.4050 ha         1 6EC       0.119000
     38 H13         -1.2540     6.8320    -3.3200 ha         1 6EC       0.099000
     39 H14         -3.3180     8.1490    -3.5840 ha         1 6EC       0.094000
     40 H15         -5.2080     7.2460    -4.8820 ha         1 6EC       0.099000
     41 H16         -5.1700     5.2950    -5.8340 ha         1 6EC       0.119000
@<TRIPOS>BOND
     1     1     2 1   
     2     2     3 1   
     3     2     4 1   
     4     4     5 ar  
     5     4     6 ar  
     6     5    10 ar  
     7     5    27 1   
     8     6     7 1   
     9     6     8 ar  
    10     7    28 1   
    11     8     9 ar  
    12     8    29 1   
    13     9    10 ar  
    14     9    30 1   
    15    10    11 1   
    16    11    12 1   
    17    11    31 1   
    18    12    13 2   
    19    12    14 1   
    20    14    15 1   
    21    14    32 1   
    22    15    16 ar  
    23    15    17 ar  
    24    16    20 ar  
    25    16    33 1   
    26    17    18 ar  
    27    17    34 1   
    28    18    19 ar  
    29    18    35 1   
    30    19    20 ar  
    31    19    36 1   
    32    20    21 1   
    33    21    22 ar  
    34    21    26 ar  
    35    22    23 ar  
    36    22    37 1   
    37    23    24 ar  
    38    23    38 1   
    39    24    25 ar  
    40    24    39 1   
    41    25    26 ar  
    42    25    40 1   
    43    26    41 1   
@<TRIPOS>SUBSTRUCTURE
     1 6EC         1 TEMP              0 ****  ****    0 ROOT
