@<TRIPOS>MOLECULE
6ED
   49    52     1     0     0
SMALL
bcc


@<TRIPOS>ATOM
      1 N12          0.0000     0.0000     0.0000 nc         1 6ED      -0.730100
      2 C15         -2.3840    -1.4410     1.8380 c3         1 6ED       0.126800
      3 C17         -4.2450    -2.7900     2.5970 c3         1 6ED       0.152300
      4 C22         -6.0830    -0.7590     1.6550 c3         1 6ED      -0.070400
      5 C24          0.5830     0.0000     2.1810 ca         1 6ED      -0.154200
      6 C26          3.0030    -0.0000     2.0150 ca         1 6ED      -0.026000
      7 O01          4.5270    -0.6040    -4.5460 o          1 6ED      -0.875300
      8 O03          4.3470    -0.3570    -2.3470 o          1 6ED      -0.875300
      9 C04          2.3700    -0.0340    -3.5440 ca         1 6ED      -0.134600
     10 C05          1.7530     0.1030    -4.7940 ca         1 6ED      -0.153300
     11 C06          0.4060     0.3900    -4.8490 ca         1 6ED       0.317200
     12 N07         -0.3050     0.5370    -3.7480 nb         1 6ED      -0.588000
     13 C08          0.2240     0.4190    -2.5500 ca         1 6ED       0.286200
     14 C09          1.5750     0.1250    -2.3950 ca         1 6ED      -0.088700
     15 C11          1.3070     0.0000     0.0000 cd         1 6ED       0.507800
     16 N13         -0.4790     0.0000     1.3140 na         1 6ED       0.447900
     17 C25          1.7500     0.0000     1.3950 ca         1 6ED      -0.252900
     18 C27          3.0820    -0.0010     3.3800 ca         1 6ED       0.024900
     19 F28          4.2920    -0.0010     3.9810 f          1 6ED      -0.137900
     20 C29          1.9270    -0.0000     4.1550 ca         1 6ED      -0.087000
     21 C30          0.6930     0.0010     3.5700 ca         1 6ED      -0.128000
     22 C14         -1.8910     0.0010     1.7020 c3         1 6ED       0.000300
     23 N16         -3.8010    -1.4400     2.2270 n3         1 6ED      -0.546600
     24 C18         -5.6780    -2.7270     3.1330 c3         1 6ED      -0.070400
     25 C19         -6.5960    -2.1440     2.0570 c3         1 6ED       0.369600
     26 F20         -7.8960    -2.0330     2.5620 f          1 6ED      -0.225300
     27 F21         -6.5980    -2.9850     0.9380 f          1 6ED      -0.225300
     28 C23         -4.6400    -0.8780     1.1610 c3         1 6ED       0.152300
     29 H1          -1.8020    -1.9520     2.5950 h1         1 6ED       0.025700
     30 H2          -2.2700    -1.9520     0.8890 h1         1 6ED       0.025700
     31 H3          -4.2160    -3.4300     1.7240 h1         1 6ED       0.025450
     32 H4          -3.5910    -3.1860     3.3640 h1         1 6ED       0.025450
     33 H5          -6.7040    -0.3610     0.8610 hc         1 6ED       0.041700
     34 H6          -6.1180    -0.0990     2.5130 hc         1 6ED       0.041700
     35 H7           3.9020     0.1100     1.4210 ha         1 6ED       0.131000
     36 H9           2.3270    -0.0150    -5.7060 ha         1 6ED       0.132000
     37 H10         -0.0770     0.4970    -5.8130 h4         1 6ED      -0.038900
     38 H11         -0.4010     0.5460    -1.6740 h4         1 6ED       0.037100
     39 H12          3.1260    -0.0480    -1.0210 hn         1 6ED       0.368800
     40 H13          2.0070    -0.0010     5.2350 ha         1 6ED       0.105000
     41 H14         -0.1990     0.0010     4.1850 ha         1 6ED       0.103000
     42 H15         -2.0050     0.5120     2.6510 h1         1 6ED       0.035200
     43 H16         -2.4740     0.5120     0.9450 h1         1 6ED       0.035200
     44 H18         -6.0110    -3.7260     3.3890 hc         1 6ED       0.041700
     45 H19         -5.7060    -2.0950     4.0120 hc         1 6ED       0.041700
     46 H20         -4.2700     0.1040     0.8920 h1         1 6ED       0.025450
     47 H21         -4.6080    -1.5310     0.2970 h1         1 6ED       0.025450
     48 N10          2.1320     0.0010    -1.1280 nu         1 6ED      -0.237600
     49 C02          3.8090    -0.3420    -3.4370 c          1 6ED       0.991200
@<TRIPOS>BOND
     1     1    15 2   
     2     1    16 1   
     3     2    22 1   
     4     2    23 1   
     5     2    29 1   
     6     2    30 1   
     7     3    23 1   
     8     3    24 1   
     9     3    31 1   
    10     3    32 1   
    11     4    25 1   
    12     4    28 1   
    13     4    33 1   
    14     4    34 1   
    15     5    16 1   
    16     5    17 ar  
    17     5    21 ar  
    18     6    17 ar  
    19     6    18 ar  
    20     6    35 1   
    21     7    49 1   
    22     8    49 1   
    23     9    10 ar  
    24     9    14 ar  
    25     9    49 1   
    26    10    11 ar  
    27    10    36 1   
    28    11    12 ar  
    29    11    37 1   
    30    12    13 ar  
    31    13    14 ar  
    32    13    38 1   
    33    14    48 1   
    34    15    17 1   
    35    15    48 1   
    36    16    22 1   
    37    18    19 1   
    38    18    20 ar  
    39    20    21 ar  
    40    20    40 1   
    41    21    41 1   
    42    22    42 1   
    43    22    43 1   
    44    23    28 1   
    45    24    25 1   
    46    24    44 1   
    47    24    45 1   
    48    25    26 1   
    49    25    27 1   
    50    28    46 1   
    51    28    47 1   
    52    39    48 1   
@<TRIPOS>SUBSTRUCTURE
     1 6ED         1 TEMP              0 ****  ****    0 ROOT
