@<TRIPOS>MOLECULE
molecule
   49    52     1     0     0
SMALL
bcc


@<TRIPOS>ATOM
      1 N12          0.0000     0.0000     0.0000 nc         1 6ED      -0.595100
      2 C15         -2.3840    -1.4410     1.8380 c3         1 6ED       0.134800
      3 C17         -4.2450    -2.7900     2.5970 c3         1 6ED       0.161300
      4 C22         -6.0830    -0.7590     1.6550 c3         1 6ED      -0.117900
      5 C24          0.5830     0.0000     2.1810 ca         1 6ED      -0.011200
      6 C26          3.0030    -0.0000     2.0150 ca         1 6ED      -0.073000
      7 O01          4.5270    -0.6040    -4.5460 o          1 6ED      -0.831300
      8 O03          4.3470    -0.3570    -2.3470 o          1 6ED      -0.831300
      9 C04          2.3700    -0.0340    -3.5440 ca         1 6ED      -0.130600
     10 C05          1.7530     0.1030    -4.7940 ca         1 6ED      -0.187300
     11 C06          0.4060     0.3900    -4.8490 ca         1 6ED       0.337200
     12 N07         -0.3050     0.5370    -3.7480 nb         1 6ED      -0.696000
     13 C08          0.2240     0.4190    -2.5500 ca         1 6ED       0.331200
     14 C09          1.5750     0.1250    -2.3950 ca         1 6ED       0.058300
     15 C11          1.3070     0.0000     0.0000 cd         1 6ED       0.628800
     16 N13         -0.4790     0.0000     1.3140 na         1 6ED       0.048900
     17 C25          1.7500     0.0000     1.3950 ca         1 6ED      -0.239900
     18 C27          3.0820    -0.0010     3.3800 ca         1 6ED       0.061900
     19 F28          4.2920    -0.0010     3.9810 f          1 6ED      -0.152900
     20 C29          1.9270    -0.0000     4.1550 ca         1 6ED      -0.121000
     21 C30          0.6930     0.0010     3.5700 ca         1 6ED      -0.157000
     22 C14         -1.8910     0.0010     1.7020 c3         1 6ED       0.091300
     23 N16         -3.8010    -1.4400     2.2270 n3         1 6ED      -0.741600
     24 C18         -5.6780    -2.7270     3.1330 c3         1 6ED      -0.117900
     25 C19         -6.5960    -2.1440     2.0570 c3         1 6ED       0.397600
     26 F20         -7.8960    -2.0330     2.5620 f          1 6ED      -0.242800
     27 F21         -6.5980    -2.9850     0.9380 f          1 6ED      -0.242800
     28 C23         -4.6400    -0.8780     1.1610 c3         1 6ED       0.161300
     29 H1          -1.8020    -1.9520     2.5950 h1         1 6ED       0.053200
     30 H2          -2.2700    -1.9520     0.8890 h1         1 6ED       0.053200
     31 H3          -4.2160    -3.4300     1.7240 h1         1 6ED       0.050950
     32 H4          -3.5910    -3.1860     3.3640 h1         1 6ED       0.050950
     33 H5          -6.7040    -0.3610     0.8610 hc         1 6ED       0.069700
     34 H6          -6.1180    -0.0990     2.5130 hc         1 6ED       0.069700
     35 H7           3.9020     0.1100     1.4210 ha         1 6ED       0.162000
     36 H9           2.3270    -0.0150    -5.7060 ha         1 6ED       0.158000
     37 H10         -0.0770     0.4970    -5.8130 h4         1 6ED      -0.002900
     38 H11         -0.4010     0.5460    -1.6740 h4         1 6ED       0.053100
     39 H12          3.1260    -0.0480    -1.0210 hn         1 6ED       0.516800
     40 H13          2.0070    -0.0010     5.2350 ha         1 6ED       0.134000
     41 H14         -0.1990     0.0010     4.1850 ha         1 6ED       0.128000
     42 H15         -2.0050     0.5120     2.6510 h1         1 6ED       0.063700
     43 H16         -2.4740     0.5120     0.9450 h1         1 6ED       0.063700
     44 H18         -6.0110    -3.7260     3.3890 hc         1 6ED       0.069700
     45 H19         -5.7060    -2.0950     4.0120 hc         1 6ED       0.069700
     46 H20         -4.2700     0.1040     0.8920 h1         1 6ED       0.050950
     47 H21         -4.6080    -1.5310     0.2970 h1         1 6ED       0.050950
     48 N10          2.1320     0.0010    -1.1280 nu         1 6ED      -0.684600
     49 C02          3.8090    -0.3420    -3.4370 c          1 6ED       0.896200
@<TRIPOS>BOND
     1    26    25 1
     2    24     3 1
     3    24    25 1
     4     3    23 1
     5    25     4 1
     6    25    27 1
     7     4    28 1
     8    23    28 1
     9    23     2 1
    10     2    22 1
    11    22    16 1
    12    16     1 1
    13    16     5 1
    14    12    13 ar
    15    12    11 ar
    16     1    15 2
    17    13    14 ar
    18     5    21 ar
    19     5    17 ar
    20    21    20 ar
    21    11    10 ar
    22    15    17 1
    23    15    48 1
    24    17     6 ar
    25    14    48 1
    26    14     9 ar
    27    20    18 ar
    28    10     9 ar
    29     9    49 1
    30    18     6 ar
    31    18    19 1
    32    49     8 1
    33    49     7 1
    34     2    29 1
    35     2    30 1
    36     3    31 1
    37     3    32 1
    38     4    33 1
    39     4    34 1
    40     6    35 1
    41    10    36 1
    42    11    37 1
    43    13    38 1
    44    48    39 1
    45    20    40 1
    46    21    41 1
    47    22    42 1
    48    22    43 1
    49    24    44 1
    50    24    45 1
    51    28    46 1
    52    28    47 1
@<TRIPOS>SUBSTRUCTURE
     1 6ED         1 TEMP              0 ****  ****    0 ROOT
