@<TRIPOS>MOLECULE
6EE
   77    80     1     0     0
SMALL
bcc


@<TRIPOS>ATOM
      1 C2           0.0000     0.0000     0.0000 c3         1 6EE       0.094800
      2 C3           1.5310     0.0000     0.0000 c3         1 6EE       0.142100
      3 O8          -1.8890     2.0380     3.9760 o          1 6EE      -0.654000
      4 C9          -4.5500     2.2300     4.3700 c3         1 6EE       0.005000
      5 C10         -6.0590     1.9800     4.4100 c3         1 6EE       0.558900
      6 C13          2.0420     1.2510    -0.7200 c3         1 6EE      -0.021400
      7 C15          4.0690     2.4210    -1.5370 ca         1 6EE      -0.097300
      8 C20          4.2030     2.4420    -2.9230 ca         1 6EE      -0.252700
      9 C30          4.2350    -2.5610    -7.1560 ca         1 6EE      -0.110000
     10 C34          4.4080    -3.7670    -5.0950 ca         1 6EE      -0.110000
     11 C31          3.8460    -3.7190    -7.8020 ca         1 6EE      -0.058500
     12 C33          4.0140    -4.9250    -5.7380 ca         1 6EE      -0.058500
     13 C35          6.9930    -1.4000    -6.5390 ca         1 6EE      -0.164000
     14 C39          7.2040    -0.6110    -4.2880 ca         1 6EE      -0.164000
     15 C37          9.1350    -0.7160    -5.7040 ca         1 6EE      -0.135000
     16 C19          4.6650     3.6000    -3.5380 ca         1 6EE       0.397200
     17 C17          4.8570     4.6780    -1.5110 ca         1 6EE       0.403200
     18 C28          4.5180    -2.5850    -5.8030 ca         1 6EE      -0.137300
     19 C29          6.4220    -1.1060    -5.3150 ca         1 6EE      -0.102300
     20 C36          8.3500    -1.2050    -6.7350 ca         1 6EE       0.176400
     21 C38          8.5590    -0.4100    -4.4840 ca         1 6EE       0.176400
     22 C16          4.4040     3.5640    -0.8260 ca         1 6EE       0.024600
     23 C32          3.7350    -4.9030    -7.0930 ca         1 6EE      -0.031600
     24 C23          4.4860     1.1030    -4.8700 c          1 6EE       0.526100
     25 C6          -2.5460     1.0990     3.5680 c          1 6EE       0.682100
     26 C            1.5510    -1.1190     2.1170 c3         1 6EE       0.186400
     27 C1           0.0210    -1.1310     2.1390 c3         1 6EE       0.067500
     28 C14          3.5670     1.1890    -0.8290 c3         1 6EE       0.024900
     29 C4          -0.4900     0.1290     2.8420 c3         1 6EE       0.242400
     30 C27          4.9460    -1.3220    -5.1020 c3         1 6EE       0.084900
     31 C24          4.1680    -0.1340    -5.6700 c3         1 6EE      -0.127500
     32 N18          4.9730     4.6640    -2.8250 nb         1 6EE      -0.527000
     33 N22          3.8780     1.3140    -3.6840 ns         1 6EE       0.062900
     34 N7          -3.8850     1.0990     3.7170 ns         1 6EE      -0.166900
     35 N           -0.4830    -1.1620     0.7590 n7         1 6EE      -0.554200
     36 N26          4.5530     0.0790    -7.0710 nz         1 6EE      -0.030600
     37 O25          5.2890     1.9090    -5.2910 o          1 6EE      -0.620100
     38 O            2.0030     0.0000     1.3500 os         1 6EE      -0.395600
     39 O5          -1.9350     0.0610     2.9670 os         1 6EE      -0.406900
     40 F41          8.9090    -1.4940    -7.9310 f          1 6EE      -0.103900
     41 F40          9.3240     0.0680    -3.4770 f          1 6EE      -0.103900
     42 F21          4.2900     3.5890     0.5210 f          1 6EE      -0.101900
     43 F           -6.5430     1.8450     3.1050 f          1 6EE      -0.200633
     44 F11         -6.3190     0.8070     5.1270 f          1 6EE      -0.200633
     45 F12         -6.6940     3.0600     5.0330 f          1 6EE      -0.200633
     46 Cl           3.2410    -6.3570    -7.9010 cl         1 6EE       0.051600
     47 H1          -0.3610    -0.0590    -1.0200 h1         1 6EE       0.040700
     48 H2          -0.3610     0.9100     0.4650 h1         1 6EE       0.040700
     49 H3           1.8910    -0.8870    -0.5070 h1         1 6EE      -0.002300
     50 H4          -4.3490     3.1370     3.8140 h1         1 6EE       0.062200
     51 H5          -4.1740     2.3350     5.3810 h1         1 6EE       0.062200
     52 H6           1.7550     2.1320    -0.1590 hc         1 6EE       0.027700
     53 H7           1.6100     1.2980    -1.7120 hc         1 6EE       0.027700
     54 H10          3.6260    -3.7010    -8.8630 ha         1 6EE       0.131000
     55 H11          3.9270    -5.8510    -5.1830 ha         1 6EE       0.131000
     56 H12          6.3790    -1.7850    -7.3440 ha         1 6EE       0.131000
     57 H13          6.7540    -0.3760    -3.3310 ha         1 6EE       0.131000
     58 H14         10.1960    -0.5610    -5.8570 ha         1 6EE       0.155000
     59 H15          4.7730     3.6270    -4.6160 h4         1 6EE       0.021100
     60 H16          5.1210     5.5730    -0.9610 h4         1 6EE       0.009100
     61 H17          1.9130    -2.0350     1.6660 h1         1 6EE       0.021200
     62 H18          1.9260    -1.0360     3.1300 h1         1 6EE       0.021200
     63 H19         -0.3250    -2.0110     2.6680 h1         1 6EE       0.055700
     64 H20          3.9980     1.1410     0.1630 hc         1 6EE       0.032700
     65 H21          3.8530     0.3080    -1.3910 hc         1 6EE       0.032700
     66 H22         -0.0440     0.1990     3.8270 h1         1 6EE       0.025200
     67 H23         -0.2180     1.0020     2.2600 h1         1 6EE       0.025200
     68 H24          4.7440    -1.4120    -4.0410 hc         1 6EE       0.071700
     69 H25          3.1060    -0.3370    -5.6130 hx         1 6EE       0.094700
     70 H26          3.1490     0.7000    -3.3810 hn         1 6EE       0.178500
     71 H27         -4.4260     0.3300     3.3740 hn         1 6EE       0.188500
     72 H28         -0.1780    -2.0040     0.3110 hn         1 6EE       0.250800
     73 H30          4.8600     1.0230    -7.1930 hn         1 6EE       0.261800
     74 H31          3.7640    -0.0950    -7.6630 hn         1 6EE       0.261800
     75 H8           4.3210    -1.6350    -7.7110 ha         1 6EE       0.091000
     76 H263         5.2840    -0.5590    -7.3170 hn         1 6EE       0.261800
     77 H9           4.6280    -3.7850    -4.0340 ha         1 6EE       0.091000
@<TRIPOS>BOND
     1     1     2 1   
     2     1    35 1   
     3     1    47 1   
     4     1    48 1   
     5     2     6 1   
     6     2    38 1   
     7     2    49 1   
     8     3    25 2   
     9     4     5 1   
    10     4    34 1   
    11     4    50 1   
    12     4    51 1   
    13     5    43 1   
    14     5    44 1   
    15     5    45 1   
    16     6    28 1   
    17     6    52 1   
    18     6    53 1   
    19     7     8 ar  
    20     7    22 ar  
    21     7    28 1   
    22     8    16 ar  
    23     8    33 1   
    24     9    11 ar  
    25     9    18 ar  
    26     9    75 1   
    27    10    12 ar  
    28    10    18 ar  
    29    10    77 1   
    30    11    23 ar  
    31    11    54 1   
    32    12    23 ar  
    33    12    55 1   
    34    13    19 ar  
    35    13    20 ar  
    36    13    56 1   
    37    14    19 ar  
    38    14    21 ar  
    39    14    57 1   
    40    15    20 ar  
    41    15    21 ar  
    42    15    58 1   
    43    16    32 ar  
    44    16    59 1   
    45    17    22 ar  
    46    17    32 ar  
    47    17    60 1   
    48    18    30 1   
    49    19    30 1   
    50    20    40 1   
    51    21    41 1   
    52    22    42 1   
    53    23    46 1   
    54    24    31 1   
    55    24    33 1   
    56    24    37 2   
    57    25    34 1   
    58    25    39 1   
    59    26    27 1   
    60    26    38 1   
    61    26    61 1   
    62    26    62 1   
    63    27    29 1   
    64    27    35 1   
    65    27    63 1   
    66    28    64 1   
    67    28    65 1   
    68    29    39 1   
    69    29    66 1   
    70    29    67 1   
    71    30    31 1   
    72    30    68 1   
    73    31    36 1   
    74    31    69 1   
    75    33    70 1   
    76    34    71 1   
    77    35    72 1   
    78    36    73 1   
    79    36    74 1   
    80    36    76 1   
@<TRIPOS>SUBSTRUCTURE
     1 6EE         1 TEMP              0 ****  ****    0 ROOT
