@<TRIPOS>MOLECULE
molecule
   90    94     1     0     0
SMALL
bcc


@<TRIPOS>ATOM
      1 C2           0.0000     0.0000     0.0000 c          1 6EF       0.730100
      2 C5          -2.1170    -0.1790    -1.0840 c3         1 6EF       0.159700
      3 C7           0.4960     1.5640     2.3620 ca         1 6EF      -0.064800
      4 C9           1.7480     2.5020    -0.2780 ca         1 6EF      -0.116500
      5 C10          2.1110     3.4980    -1.1660 ca         1 6EF      -0.124500
      6 C11          3.0560     4.4390    -0.8010 ca         1 6EF      -0.127000
      7 C12          3.6380     4.3830     0.4510 ca         1 6EF      -0.124500
      8 C13          3.2750     3.3880     1.3390 ca         1 6EF      -0.116500
      9 C15         -1.3140     1.0820     3.8540 ca         1 6EF      -0.124500
     10 C18         -0.3210     2.4170     1.6450 ca         1 6EF      -0.116500
     11 C20          2.1890    -2.7490     5.2870 ca         1 6EF      -0.125300
     12 C21          1.7230    -3.8090     6.0390 ca         1 6EF      -0.110000
     13 C22          0.8650    -4.7360     5.4730 ca         1 6EF      -0.148000
     14 C            1.5240    -1.0700     2.1720 c          1 6EF       0.635100
     15 N            1.3480     0.0000     0.0000 ns         1 6EF      -0.568900
     16 O            0.4120    -1.5130     1.9720 o          1 6EF      -0.536100
     17 C1           2.0810     0.0000     1.2690 c3         1 6EF       0.082700
     18 O3          -0.6720    -0.0650    -1.1640 os         1 6EF      -0.449900
     19 O4          -0.6070     0.0530     1.0510 o          1 6EF      -0.535000
     20 C6           1.9300     1.3660     1.9440 c3         1 6EF       0.014900
     21 C8           2.3260     2.4510     0.9770 ca         1 6EF      -0.064800
     22 C14         -0.0010     0.8960     3.4670 ca         1 6EF      -0.116500
     23 C16         -2.1320     1.9350     3.1370 ca         1 6EF      -0.127000
     24 C17         -1.6350     2.6030     2.0320 ca         1 6EF      -0.124500
     25 C19          1.7950    -2.6130     3.9620 ca         1 6EF       0.066600
     26 C23          0.4710    -4.6020     4.1550 ca         1 6EF      -0.111000
     27 C24          0.9370    -3.5470     3.3970 ca         1 6EF      -0.131000
     28 C25          5.0100     2.0190     6.5250 c3         1 6EF       0.102400
     29 C26          4.2090     3.1660     7.1480 c3         1 6EF       0.123500
     30 N27          3.3460     2.6310     8.2120 n7         1 6EF      -0.793200
     31 C28          2.4330     1.6100     7.6790 c3         1 6EF       0.116800
     32 C29          3.2520     0.4790     7.0500 c3         1 6EF       0.096100
     33 O30          4.1070     1.0220     6.0400 os         1 6EF      -0.425600
     34 C31          2.3080    -0.5480     6.4230 c3         1 6EF      -0.070400
     35 C36          1.8710     5.6870     5.8160 c          1 6EF       0.744100
     36 N37          1.2200     6.7730     6.2760 ns         1 6EF      -0.572900
     37 O38          1.7310     5.3400     4.6600 o          1 6EF      -0.612000
     38 C39          0.3430     7.5360     5.3830 c3         1 6EF       0.180300
     39 C40         -0.2590     8.6930     6.1370 ca         1 6EF      -0.120300
     40 C41          0.3910     9.9130     6.1630 ca         1 6EF      -0.109000
     41 C42         -0.1610    10.9750     6.8550 ca         1 6EF      -0.131500
     42 C43         -1.3640    10.8170     7.5200 ca         1 6EF      -0.118000
     43 C44         -2.0130     9.5980     7.4930 ca         1 6EF      -0.131500
     44 C45         -1.4620     8.5370     6.7970 ca         1 6EF      -0.109000
     45 H1          -2.5350     0.7560    -0.7310 h1         1 6EF       0.049367
     46 H2          -2.3800    -0.9740    -0.3960 h1         1 6EF       0.049367
     47 H3          -2.5160    -0.4050    -2.0660 h1         1 6EF       0.049367
     48 H4           1.0060     1.7660    -0.5630 ha         1 6EF       0.136500
     49 H5           1.6570     3.5390    -2.1490 ha         1 6EF       0.123750
     50 H6           3.3410     5.2190    -1.4960 ha         1 6EF       0.122000
     51 H7           4.3800     5.1180     0.7370 ha         1 6EF       0.123750
     52 H8           3.7290     3.3460     2.3220 ha         1 6EF       0.136500
     53 H9          -1.7030     0.5590     4.7190 ha         1 6EF       0.123750
     54 H10          0.0680     2.9400     0.7800 ha         1 6EF       0.136500
     55 H11          2.0300    -3.9160     7.0720 ha         1 6EF       0.128000
     56 H12          0.4990    -5.5660     6.0660 ha         1 6EF       0.128000
     57 H13          1.8480    -0.0640    -0.8650 hn         1 6EF       0.329500
     58 H14          3.1290    -0.1960     1.0810 h1         1 6EF       0.070700
     59 H15          2.5700     1.4090     2.8170 hc         1 6EF       0.070700
     60 H16          0.6400     0.2270     4.0290 ha         1 6EF       0.136500
     61 H17         -3.1620     2.0810     3.4400 ha         1 6EF       0.122000
     62 H18         -2.2760     3.2720     1.4700 ha         1 6EF       0.123750
     63 H19         -0.2000    -5.3300     3.7150 ha         1 6EF       0.133000
     64 H20          0.6270    -3.4430     2.3640 ha         1 6EF       0.168000
     65 H21          5.6040     2.3990     5.7030 h1         1 6EF       0.054200
     66 H22          5.6590     1.5840     7.2760 h1         1 6EF       0.054200
     67 H23          4.8910     3.8940     7.5700 h1         1 6EF       0.079700
     68 H24          3.9130     2.2290     8.9310 hn         1 6EF       0.352800
     69 H26          1.7950     2.0550     6.9250 h1         1 6EF       0.073200
     70 H27          1.8280     1.2120     8.4840 h1         1 6EF       0.073200
     71 H28          3.8550     0.0030     7.8140 h1         1 6EF       0.035700
     72 H29          1.7720    -0.0900     5.5990 hc         1 6EF       0.062700
     73 H30          1.6000    -0.8900     7.1680 hc         1 6EF       0.062700
     74 H31          3.1660    -1.1500     3.3800 hn         1 6EF       0.325500
     75 H32          3.8270    -1.3940     5.1600 hc         1 6EF       0.048200
     76 H33          3.6540    -2.1940     6.7290 hc         1 6EF       0.048200
     77 H34          3.9720     4.1390     5.2470 h1         1 6EF       0.058200
     78 H35          2.6050     3.1210     5.7190 h1         1 6EF       0.058200
     79 H36          0.9190     7.9120     4.5460 h1         1 6EF       0.061200
     80 H37          1.3320    10.0370     5.6420 ha         1 6EF       0.136000
     81 H38          0.3480    11.9310     6.8750 ha         1 6EF       0.132500
     82 H39         -1.7950    11.6490     8.0630 ha         1 6EF       0.131000
     83 H40         -2.9550     9.4740     8.0120 ha         1 6EF       0.132500
     84 H41         -1.9710     7.5810     6.7760 ha         1 6EF       0.136000
     85 H25          1.3160     7.0460     7.2350 hn         1 6EF       0.327500
     86 H42         -0.4480     6.8930     5.0170 h1         1 6EF       0.061200
     87 N32          2.2600    -1.5360     3.1990 ns         1 6EF      -0.483100
     88 C33          3.1190    -1.7370     5.9050 c3         1 6EF      -0.028100
     89 C34          3.3450     3.8280     6.0740 c3         1 6EF       0.179400
     90 O35          2.6750     4.9870     6.6370 os         1 6EF      -0.428900
@<TRIPOS>BOND
     1    13    26 ar  
     2    13    12 ar  
     3    26    27 ar  
     4    12    11 ar  
     5    27    25 ar  
     6    11    25 ar  
     7    11    88 1   
     8    25    87 1   
     9    88    34 1   
    10    28    33 1   
    11    28    29 1   
    12    33    32 1   
    13    87    14 1   
    14    36    35 1   
    15    36    38 1   
    16    32    34 1   
    17    32    31 1   
    18    29    30 1   
    19    29    89 1   
    20    35    90 1   
    21    35    37 2   
    22    38    39 1   
    23    90    89 1   
    24    14    16 2   
    25    14    17 1   
    26    30    31 1   
    27    19     1 2   
    28     2    18 1   
    29     1    18 1   
    30     1    15 1   
    31    17    15 1   
    32    17    20 1   
    33    39    40 ar  
    34    39    44 ar  
    35    40    41 ar  
    36     8     7 ar  
    37     8    21 ar  
    38    44    43 ar  
    39     7     6 ar  
    40    20    21 1   
    41    20     3 1   
    42    21     4 ar  
    43     6     5 ar  
    44     4     5 ar  
    45    41    42 ar  
    46    43    42 ar  
    47     3    22 ar  
    48     3    10 ar  
    49    22     9 ar  
    50    10    24 ar  
    51     9    23 ar  
    52    24    23 ar  
    53     2    45 1   
    54     2    46 1   
    55     2    47 1   
    56     4    48 1   
    57     5    49 1   
    58     6    50 1   
    59     7    51 1   
    60     8    52 1   
    61     9    53 1   
    62    10    54 1   
    63    12    55 1   
    64    13    56 1   
    65    15    57 1   
    66    17    58 1   
    67    20    59 1   
    68    22    60 1   
    69    23    61 1   
    70    24    62 1   
    71    26    63 1   
    72    27    64 1   
    73    28    65 1   
    74    28    66 1   
    75    29    67 1   
    76    30    68 1   
    77    31    69 1   
    78    31    70 1   
    79    32    71 1   
    80    34    72 1   
    81    34    73 1   
    82    87    74 1   
    83    88    75 1   
    84    88    76 1   
    85    89    77 1   
    86    89    78 1   
    87    38    79 1   
    88    40    80 1   
    89    41    81 1   
    90    42    82 1   
    91    43    83 1   
    92    44    84 1   
    93    36    85 1   
    94    38    86 1   
@<TRIPOS>SUBSTRUCTURE
     1 6EF         1 TEMP              0 ****  ****    0 ROOT
