@<TRIPOS>MOLECULE
6EF
   90    94     1     0     0
SMALL
bcc


@<TRIPOS>ATOM
      1 C2           0.0000     0.0000     0.0000 c          1 6EF       0.655100
      2 C5          -2.1170    -0.1790    -1.0840 c3         1 6EF       0.282700
      3 C7           0.4960     1.5640     2.3620 ca         1 6EF      -0.066800
      4 C9           1.7480     2.5020    -0.2780 ca         1 6EF      -0.110750
      5 C10          2.1110     3.4980    -1.1660 ca         1 6EF      -0.091000
      6 C11          3.0560     4.4390    -0.8010 ca         1 6EF      -0.103500
      7 C12          3.6380     4.3830     0.4510 ca         1 6EF      -0.091000
      8 C13          3.2750     3.3880     1.3390 ca         1 6EF      -0.110750
      9 C15         -1.3140     1.0820     3.8540 ca         1 6EF      -0.091000
     10 C18         -0.3210     2.4170     1.6450 ca         1 6EF      -0.110750
     11 C20          2.1890    -2.7490     5.2870 ca         1 6EF      -0.129300
     12 C21          1.7230    -3.8090     6.0390 ca         1 6EF      -0.082000
     13 C22          0.8650    -4.7360     5.4730 ca         1 6EF      -0.118000
     14 C            1.5240    -1.0700     2.1720 c          1 6EF       0.533100
     15 N            1.3480     0.0000     0.0000 ns         1 6EF      -0.170900
     16 O            0.4120    -1.5130     1.9720 o          1 6EF      -0.570100
     17 C1           2.0810     0.0000     1.2690 c3         1 6EF      -0.015300
     18 O3          -0.6720    -0.0650    -1.1640 os         1 6EF      -0.434900
     19 O4          -0.6070     0.0530     1.0510 o          1 6EF      -0.572000
     20 C6           1.9300     1.3660     1.9440 c3         1 6EF       0.059900
     21 C8           2.3260     2.4510     0.9770 ca         1 6EF      -0.066800
     22 C14         -0.0010     0.8960     3.4670 ca         1 6EF      -0.110750
     23 C16         -2.1320     1.9350     3.1370 ca         1 6EF      -0.103500
     24 C17         -1.6350     2.6030     2.0320 ca         1 6EF      -0.091000
     25 C19          1.7950    -2.6130     3.9620 ca         1 6EF      -0.074400
     26 C23          0.4710    -4.6020     4.1550 ca         1 6EF      -0.080000
     27 C24          0.9370    -3.5470     3.3970 ca         1 6EF      -0.112000
     28 C25          5.0100     2.0190     6.5250 c3         1 6EF       0.186400
     29 C26          4.2090     3.1660     7.1480 c3         1 6EF       0.068500
     30 N27          3.3460     2.6310     8.2120 n7         1 6EF      -0.561200
     31 C28          2.4330     1.6100     7.6790 c3         1 6EF       0.091800
     32 C29          3.2520     0.4790     7.0500 c3         1 6EF       0.141100
     33 O30          4.1070     1.0220     6.0400 os         1 6EF      -0.408600
     34 C31          2.3080    -0.5480     6.4230 c3         1 6EF      -0.032400
     35 C36          1.8710     5.6870     5.8160 c          1 6EF       0.672100
     36 N37          1.2200     6.7730     6.2760 ns         1 6EF      -0.174900
     37 O38          1.7310     5.3400     4.6600 o          1 6EF      -0.660000
     38 C39          0.3430     7.5360     5.3830 c3         1 6EF       0.124300
     39 C40         -0.2590     8.6930     6.1370 ca         1 6EF      -0.129300
     40 C41          0.3910     9.9130     6.1630 ca         1 6EF      -0.081500
     41 C42         -0.1610    10.9750     6.8550 ca         1 6EF      -0.102500
     42 C43         -1.3640    10.8170     7.5200 ca         1 6EF      -0.091000
     43 C44         -2.0130     9.5980     7.4930 ca         1 6EF      -0.102500
     44 C45         -1.4620     8.5370     6.7970 ca         1 6EF      -0.081500
     45 H1          -2.5350     0.7560    -0.7310 h1         1 6EF       0.000700
     46 H2          -2.3800    -0.9740    -0.3960 h1         1 6EF       0.000700
     47 H3          -2.5160    -0.4050    -2.0660 h1         1 6EF       0.000700
     48 H4           1.0060     1.7660    -0.5630 ha         1 6EF       0.119250
     49 H5           1.6570     3.5390    -2.1490 ha         1 6EF       0.097250
     50 H6           3.3410     5.2190    -1.4960 ha         1 6EF       0.096500
     51 H7           4.3800     5.1180     0.7370 ha         1 6EF       0.097250
     52 H8           3.7290     3.3460     2.3220 ha         1 6EF       0.119250
     53 H9          -1.7030     0.5590     4.7190 ha         1 6EF       0.097250
     54 H10          0.0680     2.9400     0.7800 ha         1 6EF       0.119250
     55 H11          2.0300    -3.9160     7.0720 ha         1 6EF       0.103000
     56 H12          0.4990    -5.5660     6.0660 ha         1 6EF       0.102000
     57 H13          1.8480    -0.0640    -0.8650 hn         1 6EF       0.180500
     58 H14          3.1290    -0.1960     1.0810 h1         1 6EF       0.037700
     59 H15          2.5700     1.4090     2.8170 hc         1 6EF       0.041700
     60 H16          0.6400     0.2270     4.0290 ha         1 6EF       0.119250
     61 H17         -3.1620     2.0810     3.4400 ha         1 6EF       0.096500
     62 H18         -2.2760     3.2720     1.4700 ha         1 6EF       0.097250
     63 H19         -0.2000    -5.3300     3.7150 ha         1 6EF       0.103000
     64 H20          0.6270    -3.4430     2.3640 ha         1 6EF       0.148000
     65 H21          5.6040     2.3990     5.7030 h1         1 6EF       0.015200
     66 H22          5.6590     1.5840     7.2760 h1         1 6EF       0.015200
     67 H23          4.8910     3.8940     7.5700 h1         1 6EF       0.046700
     68 H24          3.9130     2.2290     8.9310 hn         1 6EF       0.252800
     69 H26          1.7950     2.0550     6.9250 h1         1 6EF       0.043200
     70 H27          1.8280     1.2120     8.4840 h1         1 6EF       0.043200
     71 H28          3.8550     0.0030     7.8140 h1         1 6EF       0.010700
     72 H29          1.7720    -0.0900     5.5990 hc         1 6EF       0.034700
     73 H30          1.6000    -0.8900     7.1680 hc         1 6EF       0.034700
     74 H31          3.1660    -1.1500     3.3800 hn         1 6EF       0.176500
     75 H32          3.8270    -1.3940     5.1600 hc         1 6EF       0.020200
     76 H33          3.6540    -2.1940     6.7290 hc         1 6EF       0.020200
     77 H34          3.9720     4.1390     5.2470 h1         1 6EF       0.022700
     78 H35          2.6050     3.1210     5.7190 h1         1 6EF       0.022700
     79 H36          0.9190     7.9120     4.5460 h1         1 6EF       0.030200
     80 H37          1.3320    10.0370     5.6420 ha         1 6EF       0.108500
     81 H38          0.3480    11.9310     6.8750 ha         1 6EF       0.104500
     82 H39         -1.7950    11.6490     8.0630 ha         1 6EF       0.103000
     83 H40         -2.9550     9.4740     8.0120 ha         1 6EF       0.104500
     84 H41         -1.9710     7.5810     6.7760 ha         1 6EF       0.108500
     85 H25          1.3160     7.0460     7.2350 hn         1 6EF       0.179500
     86 H42         -0.4480     6.8930     5.0170 h1         1 6EF       0.030200
     87 N32          2.2600    -1.5360     3.1990 ns         1 6EF      -0.049100
     88 C33          3.1190    -1.7370     5.9050 c3         1 6EF       0.032900
     89 C34          3.3450     3.8280     6.0740 c3         1 6EF       0.239400
     90 O35          2.6750     4.9870     6.6370 os         1 6EF      -0.410900
@<TRIPOS>BOND
     1     1    15 1   
     2     1    18 1   
     3     1    19 2   
     4     2    18 1   
     5     2    45 1   
     6     2    46 1   
     7     2    47 1   
     8     3    10 ar  
     9     3    20 1   
    10     3    22 ar  
    11     4     5 ar  
    12     4    21 ar  
    13     4    48 1   
    14     5     6 ar  
    15     5    49 1   
    16     6     7 ar  
    17     6    50 1   
    18     7     8 ar  
    19     7    51 1   
    20     8    21 ar  
    21     8    52 1   
    22     9    22 ar  
    23     9    23 ar  
    24     9    53 1   
    25    10    24 ar  
    26    10    54 1   
    27    11    12 ar  
    28    11    25 ar  
    29    11    88 1   
    30    12    13 ar  
    31    12    55 1   
    32    13    26 ar  
    33    13    56 1   
    34    14    16 2   
    35    14    17 1   
    36    14    87 1   
    37    15    17 1   
    38    15    57 1   
    39    17    20 1   
    40    17    58 1   
    41    20    21 1   
    42    20    59 1   
    43    22    60 1   
    44    23    24 ar  
    45    23    61 1   
    46    24    62 1   
    47    25    27 ar  
    48    25    87 1   
    49    26    27 ar  
    50    26    63 1   
    51    27    64 1   
    52    28    29 1   
    53    28    33 1   
    54    28    65 1   
    55    28    66 1   
    56    29    30 1   
    57    29    67 1   
    58    29    89 1   
    59    30    31 1   
    60    30    68 1   
    61    31    32 1   
    62    31    69 1   
    63    31    70 1   
    64    32    33 1   
    65    32    34 1   
    66    32    71 1   
    67    34    72 1   
    68    34    73 1   
    69    34    88 1   
    70    35    36 1   
    71    35    37 2   
    72    35    90 1   
    73    36    38 1   
    74    36    85 1   
    75    38    39 1   
    76    38    79 1   
    77    38    86 1   
    78    39    40 ar  
    79    39    44 ar  
    80    40    41 ar  
    81    40    80 1   
    82    41    42 ar  
    83    41    81 1   
    84    42    43 ar  
    85    42    82 1   
    86    43    44 ar  
    87    43    83 1   
    88    44    84 1   
    89    74    87 1   
    90    75    88 1   
    91    76    88 1   
    92    77    89 1   
    93    78    89 1   
    94    89    90 1   
@<TRIPOS>SUBSTRUCTURE
     1 6EF         1 TEMP              0 ****  ****    0 ROOT
