@<TRIPOS>MOLECULE
6EG
   80    83     1     0     0
SMALL
bcc


@<TRIPOS>ATOM
      1 C2           0.0000     0.0000     0.0000 c3         1 6EG       0.027900
      2 C3           1.5070     0.0000     0.0000 ca         1 6EG      -0.125300
      3 C5           3.5810     0.0010     1.1960 ca         1 6EG      -0.124000
      4 C7           3.5900    -0.0070    -1.1980 ca         1 6EG      -0.152000
      5 C10          2.1580    -0.2620    -3.5680 c          1 6EG       0.534100
      6 C11          1.4410    -0.1220    -4.8860 c3         1 6EG      -0.025300
      7 C18         -0.2510    -1.8390    -4.3020 ca         1 6EG      -0.084800
      8 C20         -2.3270    -1.3360    -3.2210 ca         1 6EG      -0.095750
      9 C21         -2.2410    -2.5180    -2.5070 ca         1 6EG      -0.111500
     10 C22         -1.1630    -3.3620    -2.6940 ca         1 6EG      -0.095750
     11 C           -2.0360    -1.3920     0.4030 c3         1 6EG       0.099500
     12 N           -2.4290    -0.5520     1.5420 n7         1 6EG      -0.583200
     13 O            3.3230    -0.5960    -3.5440 o          1 6EG      -0.583100
     14 C1          -0.5100    -1.4140     0.2870 c3         1 6EG      -0.024400
     15 C4           2.1980     0.0000     1.1950 ca         1 6EG      -0.077000
     16 C6           4.2760     0.0000     0.0000 ca         1 6EG      -0.082000
     17 C8           2.2010    -0.0080    -1.2020 ca         1 6EG      -0.084400
     18 N9           1.5030    -0.0150    -2.4150 ns         1 6EG      -0.030100
     19 N12          2.3900     0.3060    -5.9150 ns         1 6EG      -0.156900
     20 O14          4.3340    -0.0650    -7.1520 os         1 6EG      -0.429900
     21 O15          3.6380    -1.5060    -5.6140 o          1 6EG      -0.622000
     22 C16          5.4630    -0.9400    -7.4120 c3         1 6EG       0.285700
     23 C17          0.8340    -1.4700    -5.2810 c3         1 6EG       0.035900
     24 C19         -1.3320    -0.9980    -4.1190 ca         1 6EG      -0.102250
     25 C23         -0.1680    -3.0230    -3.5920 ca         1 6EG      -0.102250
     26 C24         -3.7860    -0.0200     1.3610 c3         1 6EG       0.209100
     27 C25         -4.1530     0.8350     2.5460 ca         1 6EG      -0.162300
     28 C26         -4.7670     0.2630     3.6460 ca         1 6EG      -0.033500
     29 C27         -5.1050     1.0440     4.7340 ca         1 6EG      -0.190500
     30 C28         -4.8280     2.4050     4.7230 ca         1 6EG       0.058600
     31 C29         -4.2110     2.9760     3.6170 ca         1 6EG      -0.190500
     32 C30         -3.8710     2.1880     2.5350 ca         1 6EG      -0.033500
     33 C31         -2.5520    -2.8170     0.6190 c3         1 6EG       0.170400
     34 O32         -1.9270    -3.3790     1.7750 oh         1 6EG      -0.585800
     35 C33          0.2490    -1.3710    -6.6660 ca         1 6EG      -0.084800
     36 C34          0.5530    -2.3290    -7.6150 ca         1 6EG      -0.102250
     37 C35          0.0160    -2.2370    -8.8860 ca         1 6EG      -0.095750
     38 C36         -0.8250    -1.1880    -9.2070 ca         1 6EG      -0.111500
     39 C37         -1.1290    -0.2300    -8.2580 ca         1 6EG      -0.095750
     40 C38         -0.5970    -0.3250    -6.9850 ca         1 6EG      -0.102250
     41 N39         -5.1680     3.1980     5.8210 nv         1 6EG      -0.447200
     42 H1          -0.3610     0.3240    -0.9680 hc         1 6EG       0.022700
     43 H2          -0.3610     0.6770     0.7650 hc         1 6EG       0.022700
     44 H3           4.1210     0.0040     2.1350 ha         1 6EG       0.100000
     45 H4           4.1350    -0.0100    -2.1350 ha         1 6EG       0.179000
     46 H5           0.6530     0.6150    -4.7920 h1         1 6EG       0.039700
     47 H6          -3.1740    -0.6760    -3.0760 ha         1 6EG       0.104250
     48 H7          -3.0210    -2.7840    -1.8040 ha         1 6EG       0.107500
     49 H8          -1.0970    -4.2880    -2.1360 ha         1 6EG       0.104250
     50 H9          -2.4610    -0.9890    -0.5070 h1         1 6EG       0.041700
     51 H10         -2.3910    -1.0910     2.3840 hn         1 6EG       0.276800
     52 H12         -0.0820    -1.7700     1.2170 hc         1 6EG       0.032200
     53 H13         -0.2190    -2.0740    -0.5210 hc         1 6EG       0.032200
     54 H14          1.6570     0.0010     2.1330 ha         1 6EG       0.109000
     55 H15          5.3590     0.0010     0.0040 ha         1 6EG       0.101000
     56 H16          0.5330     0.2300    -2.4340 hn         1 6EG       0.181500
     57 H17          2.2660     1.1870    -6.3740 hn         1 6EG       0.173500
     58 H18          6.0000    -1.1200    -6.4890 h1         1 6EG      -0.000300
     59 H19          6.1250    -0.4700    -8.1290 h1         1 6EG      -0.000300
     60 H20          5.1060    -1.8810    -7.8130 h1         1 6EG      -0.000300
     61 H21          1.6050    -2.2310    -5.2680 hc         1 6EG       0.093700
     62 H22         -1.3990    -0.0720    -4.6780 ha         1 6EG       0.114000
     63 H23          0.6780    -3.6840    -3.7380 ha         1 6EG       0.114000
     64 H24         -3.8220     0.5790     0.4590 h1         1 6EG       0.003200
     65 H25         -4.4870    -0.8410     1.2780 h1         1 6EG       0.003200
     66 H26         -4.9830    -0.7990     3.6540 ha         1 6EG       0.099500
     67 H27         -5.5860     0.5950     5.5950 ha         1 6EG       0.107500
     68 H28         -3.9910     4.0370     3.6060 ha         1 6EG       0.107500
     69 H29         -3.3890     2.6330     1.6720 ha         1 6EG       0.099500
     70 H30         -3.6250    -2.7940     0.7640 h1         1 6EG      -0.003300
     71 H31         -2.3170    -3.4220    -0.2480 h1         1 6EG      -0.003300
     72 H32         -2.2780    -4.2400     1.9350 ho         1 6EG       0.391000
     73 H33          1.2120    -3.1510    -7.3630 ha         1 6EG       0.114000
     74 H34          0.2540    -2.9880    -9.6300 ha         1 6EG       0.104250
     75 H35         -1.2430    -1.1150   -10.2030 ha         1 6EG       0.107500
     76 H36         -1.7900     0.5900    -8.5090 ha         1 6EG       0.104250
     77 H37         -0.8350     0.4250    -6.2410 ha         1 6EG       0.114000
     78 H38         -4.9680     4.1780     5.8120 hn         1 6EG       0.265300
     79 H39         -5.6130     2.7850     6.6180 hn         1 6EG       0.265300
     80 C13          3.4610    -0.4590    -6.2060 c          1 6EG       0.679100
@<TRIPOS>BOND
     1     1     2 1   
     2     1    14 1   
     3     1    42 1   
     4     1    43 1   
     5     2    15 ar  
     6     2    17 ar  
     7     3    15 ar  
     8     3    16 ar  
     9     3    44 1   
    10     4    16 ar  
    11     4    17 ar  
    12     4    45 1   
    13     5     6 1   
    14     5    13 2   
    15     5    18 1   
    16     6    19 1   
    17     6    23 1   
    18     6    46 1   
    19     7    23 1   
    20     7    24 ar  
    21     7    25 ar  
    22     8     9 ar  
    23     8    24 ar  
    24     8    47 1   
    25     9    10 ar  
    26     9    48 1   
    27    10    25 ar  
    28    10    49 1   
    29    11    12 1   
    30    11    14 1   
    31    11    33 1   
    32    11    50 1   
    33    12    26 1   
    34    12    51 1   
    35    14    52 1   
    36    14    53 1   
    37    15    54 1   
    38    16    55 1   
    39    17    18 1   
    40    18    56 1   
    41    19    57 1   
    42    19    80 1   
    43    20    22 1   
    44    20    80 1   
    45    21    80 2   
    46    22    58 1   
    47    22    59 1   
    48    22    60 1   
    49    23    35 1   
    50    23    61 1   
    51    24    62 1   
    52    25    63 1   
    53    26    27 1   
    54    26    64 1   
    55    26    65 1   
    56    27    28 ar  
    57    27    32 ar  
    58    28    29 ar  
    59    28    66 1   
    60    29    30 ar  
    61    29    67 1   
    62    30    31 ar  
    63    30    41 1   
    64    31    32 ar  
    65    31    68 1   
    66    32    69 1   
    67    33    34 1   
    68    33    70 1   
    69    33    71 1   
    70    34    72 1   
    71    35    36 ar  
    72    35    40 ar  
    73    36    37 ar  
    74    36    73 1   
    75    37    38 ar  
    76    37    74 1   
    77    38    39 ar  
    78    38    75 1   
    79    39    40 ar  
    80    39    76 1   
    81    40    77 1   
    82    41    78 1   
    83    41    79 1   
@<TRIPOS>SUBSTRUCTURE
     1 6EG         1 TEMP              0 ****  ****    0 ROOT
