@<TRIPOS>MOLECULE
molecule
   80    83     1     0     0
SMALL
bcc


@<TRIPOS>ATOM
      1 C2           0.0000     0.0000     0.0000 c3         1 6EG      -0.027100
      2 C3           1.5070     0.0000     0.0000 ca         1 6EG      -0.122300
      3 C5           3.5810     0.0010     1.1960 ca         1 6EG      -0.153000
      4 C7           3.5900    -0.0070    -1.1980 ca         1 6EG      -0.158000
      5 C10          2.1580    -0.2620    -3.5680 c          1 6EG       0.637100
      6 C11          1.4410    -0.1220    -4.8860 c3         1 6EG       0.084700
      7 C18         -0.2510    -1.8390    -4.3020 ca         1 6EG      -0.075800
      8 C20         -2.3270    -1.3360    -3.2210 ca         1 6EG      -0.126000
      9 C21         -2.2410    -2.5180    -2.5070 ca         1 6EG      -0.132000
     10 C22         -1.1630    -3.3620    -2.6940 ca         1 6EG      -0.126000
     11 C           -2.0360    -1.3920     0.4030 c3         1 6EG       0.164500
     12 N           -2.4290    -0.5520     1.5420 n7         1 6EG      -0.811200
     13 O            3.3230    -0.5960    -3.5440 o          1 6EG      -0.549100
     14 C1          -0.5100    -1.4140     0.2870 c3         1 6EG      -0.061400
     15 C4           2.1980     0.0000     1.1950 ca         1 6EG      -0.105000
     16 C6           4.2760     0.0000     0.0000 ca         1 6EG      -0.115000
     17 C8           2.2010    -0.0080    -1.2020 ca         1 6EG       0.058600
     18 N9           1.5030    -0.0150    -2.4150 ns         1 6EG      -0.467100
     19 N12          2.3900     0.3060    -5.9150 ns         1 6EG      -0.561900
     20 O14          4.3340    -0.0650    -7.1520 os         1 6EG      -0.441900
     21 O15          3.6380    -1.5060    -5.6140 o          1 6EG      -0.582000
     22 C16          5.4630    -0.9400    -7.4120 c3         1 6EG       0.159700
     23 C17          0.8340    -1.4700    -5.2810 c3         1 6EG       0.004900
     24 C19         -1.3320    -0.9980    -4.1190 ca         1 6EG      -0.121750
     25 C23         -0.1680    -3.0230    -3.5920 ca         1 6EG      -0.121750
     26 C24         -3.7860    -0.0200     1.3610 c3         1 6EG       0.209100
     27 C25         -4.1530     0.8350     2.5460 ca         1 6EG      -0.147300
     28 C26         -4.7670     0.2630     3.6460 ca         1 6EG      -0.066500
     29 C27         -5.1050     1.0440     4.7340 ca         1 6EG      -0.211500
     30 C28         -4.8280     2.4050     4.7230 ca         1 6EG       0.208600
     31 C29         -4.2110     2.9760     3.6170 ca         1 6EG      -0.211500
     32 C30         -3.8710     2.1880     2.5350 ca         1 6EG      -0.066500
     33 C31         -2.5520    -2.8170     0.6190 c3         1 6EG       0.095400
     34 O32         -1.9270    -3.3790     1.7750 oh         1 6EG      -0.607800
     35 C33          0.2490    -1.3710    -6.6660 ca         1 6EG      -0.075800
     36 C34          0.5530    -2.3290    -7.6150 ca         1 6EG      -0.121750
     37 C35          0.0160    -2.2370    -8.8860 ca         1 6EG      -0.126000
     38 C36         -0.8250    -1.1880    -9.2070 ca         1 6EG      -0.132000
     39 C37         -1.1290    -0.2300    -8.2580 ca         1 6EG      -0.126000
     40 C38         -0.5970    -0.3250    -6.9850 ca         1 6EG      -0.121750
     41 N39         -5.1680     3.1980     5.8210 nv         1 6EG      -0.922200
     42 H1          -0.3610     0.3240    -0.9680 hc         1 6EG       0.048200
     43 H2          -0.3610     0.6770     0.7650 hc         1 6EG       0.048200
     44 H3           4.1210     0.0040     2.1350 ha         1 6EG       0.126000
     45 H4           4.1350    -0.0100    -2.1350 ha         1 6EG       0.191000
     46 H5           0.6530     0.6150    -4.7920 h1         1 6EG       0.066700
     47 H6          -3.1740    -0.6760    -3.0760 ha         1 6EG       0.131000
     48 H7          -3.0210    -2.7840    -1.8040 ha         1 6EG       0.130000
     49 H8          -1.0970    -4.2880    -2.1360 ha         1 6EG       0.131000
     50 H9          -2.4610    -0.9890    -0.5070 h1         1 6EG       0.061700
     51 H10         -2.3910    -1.0910     2.3840 hn         1 6EG       0.375800
     52 H12         -0.0820    -1.7700     1.2170 hc         1 6EG       0.058700
     53 H13         -0.2190    -2.0740    -0.5210 hc         1 6EG       0.058700
     54 H14          1.6570     0.0010     2.1330 ha         1 6EG       0.135000
     55 H15          5.3590     0.0010     0.0040 ha         1 6EG       0.130000
     56 H16          0.5330     0.2300    -2.4340 hn         1 6EG       0.327500
     57 H17          2.2660     1.1870    -6.3740 hn         1 6EG       0.328500
     58 H18          6.0000    -1.1200    -6.4890 h1         1 6EG       0.049033
     59 H19          6.1250    -0.4700    -8.1290 h1         1 6EG       0.049033
     60 H20          5.1060    -1.8810    -7.8130 h1         1 6EG       0.049033
     61 H21          1.6050    -2.2310    -5.2680 hc         1 6EG       0.115700
     62 H22         -1.3990    -0.0720    -4.6780 ha         1 6EG       0.134250
     63 H23          0.6780    -3.6840    -3.7380 ha         1 6EG       0.134250
     64 H24         -3.8220     0.5790     0.4590 h1         1 6EG       0.029200
     65 H25         -4.4870    -0.8410     1.2780 h1         1 6EG       0.029200
     66 H26         -4.9830    -0.7990     3.6540 ha         1 6EG       0.128500
     67 H27         -5.5860     0.5950     5.5950 ha         1 6EG       0.128000
     68 H28         -3.9910     4.0370     3.6060 ha         1 6EG       0.128000
     69 H29         -3.3890     2.6330     1.6720 ha         1 6EG       0.128500
     70 H30         -3.6250    -2.7940     0.7640 h1         1 6EG       0.024200
     71 H31         -2.3170    -3.4220    -0.2480 h1         1 6EG       0.024200
     72 H32         -2.2780    -4.2400     1.9350 ho         1 6EG       0.403000
     73 H33          1.2120    -3.1510    -7.3630 ha         1 6EG       0.134250
     74 H34          0.2540    -2.9880    -9.6300 ha         1 6EG       0.131000
     75 H35         -1.2430    -1.1150   -10.2030 ha         1 6EG       0.130000
     76 H36         -1.7900     0.5900    -8.5090 ha         1 6EG       0.131000
     77 H37         -0.8350     0.4250    -6.2410 ha         1 6EG       0.134250
     78 H38         -4.9680     4.1780     5.8120 hn         1 6EG       0.428800
     79 H39         -5.6130     2.7850     6.6180 hn         1 6EG       0.428800
     80 C13          3.4610    -0.4590    -6.2060 c          1 6EG       0.753100
@<TRIPOS>BOND
     1    38    37 ar  
     2    38    39 ar  
     3    37    36 ar  
     4    39    40 ar  
     5    36    35 ar  
     6    40    35 ar  
     7    35    23 1   
     8    22    20 1   
     9    10    25 ar  
    10    10     9 ar  
    11    25     7 ar  
    12     9     8 ar  
    13    20    80 1   
    14     7    23 1   
    15     7    24 ar  
    16     8    24 ar  
    17    23     6 1   
    18    80    21 2   
    19    80    19 1   
    20     6    19 1   
    21     6     5 1   
    22    28    29 ar  
    23    28    27 ar  
    24    29    30 ar  
    25    26    27 1   
    26    26    12 1   
    27    27    32 ar  
    28    30    41 1   
    29    30    31 ar  
    30     5    18 1   
    31     5    13 2   
    32    18    17 1   
    33    11    12 1   
    34    11    33 1   
    35    11    14 1   
    36    33    34 1   
    37    32    31 ar  
    38     1    14 1   
    39     1     2 1   
    40    17     2 ar  
    41    17     4 ar  
    42     2    15 ar  
    43     4    16 ar  
    44    15     3 ar  
    45    16     3 ar  
    46     1    42 1   
    47     1    43 1   
    48     3    44 1   
    49     4    45 1   
    50     6    46 1   
    51     8    47 1   
    52     9    48 1   
    53    10    49 1   
    54    11    50 1   
    55    12    51 1   
    56    14    52 1   
    57    14    53 1   
    58    15    54 1   
    59    16    55 1   
    60    18    56 1   
    61    19    57 1   
    62    22    58 1   
    63    22    59 1   
    64    22    60 1   
    65    23    61 1   
    66    24    62 1   
    67    25    63 1   
    68    26    64 1   
    69    26    65 1   
    70    28    66 1   
    71    29    67 1   
    72    31    68 1   
    73    32    69 1   
    74    33    70 1   
    75    33    71 1   
    76    34    72 1   
    77    36    73 1   
    78    37    74 1   
    79    38    75 1   
    80    39    76 1   
    81    40    77 1   
    82    41    78 1   
    83    41    79 1   
@<TRIPOS>SUBSTRUCTURE
     1 6EG         1 TEMP              0 ****  ****    0 ROOT
