@<TRIPOS>MOLECULE
molecule
   62    64     1     0     0
SMALL
bcc


@<TRIPOS>ATOM
      1 C2           0.0000     0.0000     0.0000 c3         1 6EH       0.117800
      2 C3           1.9910     0.0000     1.3750 c3         1 6EH       0.123800
      3 C11          2.9620    -3.6150    12.7190 c3         1 6EH       0.159700
      4 C12          0.0220    -5.0600     8.8010 c3         1 6EH       0.003900
      5 C13         -0.3510    -6.2660     9.6240 ca         1 6EH      -0.072800
      6 C15         -0.9620    -6.1020    10.8520 ca         1 6EH      -0.124750
      7 C18         -0.4230    -8.6430     9.9040 ca         1 6EH      -0.125500
      8 C20         -1.7620    -3.9930     7.4050 ca         1 6EH      -0.124750
      9 C21         -2.5520    -3.9470     6.2710 ca         1 6EH      -0.125500
     10 C22         -2.4230    -4.9220     5.2990 ca         1 6EH      -0.128000
     11 C            1.4660    -1.2340     2.1140 c3         1 6EH       0.147100
     12 N            1.4700     0.0000     0.0000 n7         1 6EH      -0.818200
     13 O            0.0370    -1.2330     2.0760 os         1 6EH      -0.425600
     14 C1          -0.5050    -1.2340     0.7530 c3         1 6EH       0.141400
     15 C4           1.9050    -3.8820     7.7000 c          1 6EH       0.640100
     16 O5           2.5180    -3.0300     8.3080 o          1 6EH      -0.576100
     17 C6           1.4940    -5.1550     8.3930 c3         1 6EH       0.082700
     18 N7           2.3190    -5.3490     9.5880 ns         1 6EH      -0.557900
     19 C8           2.2960    -4.4370    10.5780 c          1 6EH       0.763100
     20 O9           1.5240    -3.5000    10.5230 o          1 6EH      -0.598000
     21 O10          3.1270    -4.5630    11.6300 os         1 6EH      -0.441900
     22 C14         -0.8390    -5.0110     7.5640 ca         1 6EH      -0.072800
     23 C16         -1.3030    -7.2090    11.6080 ca         1 6EH      -0.125500
     24 C17         -1.0330    -8.4790    11.1340 ca         1 6EH      -0.128000
     25 C19         -0.0860    -7.5370     9.1470 ca         1 6EH      -0.124750
     26 C23         -1.5030    -5.9420     5.4610 ca         1 6EH      -0.125500
     27 C24         -0.7060    -5.9810     6.5890 ca         1 6EH      -0.124750
     28 N25          1.5940    -3.6910     6.4010 ns         1 6EH      -0.585900
     29 C26          1.9950    -2.4530     5.7270 c3         1 6EH       0.113000
     30 C28          1.9400    -1.1980     3.5680 c3         1 6EH      -0.071400
     31 H1          -0.3610    -0.0280    -1.0210 h1         1 6EH       0.040700
     32 H2          -0.3610     0.8950     0.4920 h1         1 6EH       0.040700
     33 H3           3.0740    -0.0280     1.3500 h1         1 6EH       0.041700
     34 H4           1.6580     0.8950     1.8860 h1         1 6EH       0.041700
     35 H5           3.7580    -3.7530    13.4410 h1         1 6EH       0.048700
     36 H6           2.9990    -2.6060    12.3280 h1         1 6EH       0.048700
     37 H7           2.0060    -3.7810    13.2000 h1         1 6EH       0.048700
     38 H8          -0.1340    -4.1620     9.3850 hc         1 6EH       0.116700
     39 H9          -1.1730    -5.1070    11.2230 ha         1 6EH       0.132500
     40 H10         -0.2140    -9.6380     9.5320 ha         1 6EH       0.130000
     41 H11         -1.8620    -3.2290     8.1660 ha         1 6EH       0.132500
     42 H12         -3.2730    -3.1490     6.1460 ha         1 6EH       0.130000
     43 H13         -3.0450    -4.8890     4.4130 ha         1 6EH       0.130000
     44 H14          1.8390    -2.1280     1.6300 h1         1 6EH       0.049700
     45 H15          1.8040     0.8100    -0.4830 hn         1 6EH       0.356800
     46 H17         -1.5860    -1.2070     0.8070 h1         1 6EH       0.052700
     47 H18         -0.1860    -2.1290     0.2330 h1         1 6EH       0.052700
     48 H19          1.6290    -5.9930     7.7200 h1         1 6EH       0.067700
     49 H20          2.9320    -6.1380     9.6490 hn         1 6EH       0.327500
     50 H21         -1.7820    -7.0800    12.5710 ha         1 6EH       0.130000
     51 H22         -1.2990    -9.3470    11.7260 ha         1 6EH       0.130000
     52 H23          0.3920    -7.6660     8.1840 ha         1 6EH       0.132500
     53 H24         -1.4000    -6.7050     4.6990 ha         1 6EH       0.130000
     54 H25          0.0140    -6.7800     6.7160 ha         1 6EH       0.132500
     55 H26          1.1440    -4.4190     5.8830 hn         1 6EH       0.316500
     56 H27          1.5470    -1.6060     6.2320 h1         1 6EH       0.052200
     57 H28          3.0740    -2.3610     5.7530 h1         1 6EH       0.052200
     58 H29          1.9680    -3.3380     3.7680 hc         1 6EH       0.053700
     59 H30          0.4420    -2.5820     4.2470 hc         1 6EH       0.053700
     60 H31          3.0190    -1.1050     3.5940 hc         1 6EH       0.055200
     61 H32          1.4920    -0.3500     4.0720 hc         1 6EH       0.055200
     62 C27          1.5210    -2.4900     4.2730 c3         1 6EH      -0.099400
@<TRIPOS>BOND
     1    29    62 1
     2    29    28 1
     3    62    30 1
     4    14    13 1
     5    14     1 1
     6    13    11 1
     7    28    15 1
     8    11    30 1
     9    11     2 1
    10     1    12 1
    11    15    16 2
    12    15    17 1
    13    12     2 1
    14    20    19 2
    15     3    21 1
    16    19    21 1
    17    19    18 1
    18    17    18 1
    19    17     4 1
    20    25     7 ar
    21    25     5 ar
    22     7    24 ar
    23     4     5 1
    24     4    22 1
    25     5     6 ar
    26    24    23 ar
    27     6    23 ar
    28    22     8 ar
    29    22    27 ar
    30     8     9 ar
    31    27    26 ar
    32     9    10 ar
    33    26    10 ar
    34     1    31 1
    35     1    32 1
    36     2    33 1
    37     2    34 1
    38     3    35 1
    39     3    36 1
    40     3    37 1
    41     4    38 1
    42     6    39 1
    43     7    40 1
    44     8    41 1
    45     9    42 1
    46    10    43 1
    47    11    44 1
    48    12    45 1
    49    14    46 1
    50    14    47 1
    51    17    48 1
    52    18    49 1
    53    23    50 1
    54    24    51 1
    55    25    52 1
    56    26    53 1
    57    27    54 1
    58    28    55 1
    59    29    56 1
    60    29    57 1
    61    62    58 1
    62    62    59 1
    63    30    60 1
    64    30    61 1
@<TRIPOS>SUBSTRUCTURE
     1 6EH         1 TEMP              0 ****  ****    0 ROOT
