@<TRIPOS>MOLECULE
molecule
   59    64     1     0     0
SMALL
bcc


@<TRIPOS>ATOM
      1 C4           0.0000     0.0000     0.0000 ca         1 6EJ      -0.043000
      2 C5           1.3990     0.0000     0.0000 ca         1 6EJ      -0.147800
      3 C6           2.2080     0.0000     1.2180 cc         1 6EJ      -0.035200
      4 C7           3.5610     0.0000     1.0760 cd         1 6EJ      -0.237200
      5 C8           4.1690    -0.0000    -0.1980 c          1 6EJ       0.707700
      6 C17          4.0010     0.0600    -7.4800 c3         1 6EJ      -0.080900
      7 C20          3.3520    -2.4610    -6.2100 c3         1 6EJ       0.162300
      8 C22          5.0030    -2.0720   -10.3600 c3         1 6EJ       0.192500
      9 C24          7.8110    -2.9120   -10.8500 ca         1 6EJ      -0.190300
     10 C28         11.0430    -2.1130   -13.2680 c3         1 6EJ       0.101400
     11 C3          -0.6650    -0.0070    -1.1970 ca         1 6EJ      -0.205000
     12 C33          1.3980    -0.0010    -2.4290 ca         1 6EJ      -0.188300
     13 C34          2.0700    -0.0000    -1.2270 ca         1 6EJ       0.089600
     14 C25          8.8680    -2.7450   -11.7370 ca         1 6EJ      -0.009200
     15 C2           0.0180    -0.0140    -2.4120 ca         1 6EJ       0.197900
     16 C23          6.7160    -2.0720   -10.9870 ca         1 6EJ       0.313600
     17 C30          8.7660    -1.7460   -12.7050 ca         1 6EJ       0.513600
     18 C19          4.4510    -2.3850    -7.2730 c3         1 6EJ      -0.080900
     19 C16          2.9160    -0.0850    -6.4110 c3         1 6EJ       0.162300
     20 C11          3.7900     0.0000    -2.7540 c3         1 6EJ       0.119000
     21 C27         10.8240    -3.5590   -12.8030 c3         1 6EJ       0.096400
     22 C12          2.4470    -0.0000    -3.5150 c3         1 6EJ      -0.019400
     23 C18          4.1290    -1.2550    -8.2550 c3         1 6EJ       0.207500
     24 C14          2.3230    -1.2580    -4.3780 c3         1 6EJ       0.166800
     25 N32          6.7020    -1.1560   -11.9350 nb         1 6EJ      -0.342000
     26 N31          7.6800    -0.9920   -12.7500 nb         1 6EJ      -0.310000
     27 N10          3.4310     0.0010    -1.3280 n          1 6EJ      -0.335000
     28 N15          3.2700    -1.1790    -5.4970 n3         1 6EJ      -0.734600
     29 N21          5.2100    -1.1400    -9.2420 n7         1 6EJ      -0.905200
     30 O9           5.3850     0.0010    -0.2790 o          1 6EJ      -0.632500
     31 O26          9.9650    -3.5370   -11.6570 os         1 6EJ      -0.310900
     32 O29          9.7710    -1.5460   -13.5980 os         1 6EJ      -0.417100
     33 F1          -0.6710    -0.0210    -3.5740 f          1 6EJ      -0.135900
     34 H1          -0.5500     0.0060     0.9340 ha         1 6EJ       0.145000
     35 H2           1.7470     0.0000     2.1980 ha         1 6EJ       0.144000
     36 H3           4.1860     0.0010     1.9610 ha         1 6EJ       0.166000
     37 H4           3.7290     0.8550    -8.1630 hc         1 6EJ       0.057200
     38 H5           4.9460     0.2920    -7.0050 hc         1 6EJ       0.057200
     39 H6           3.5860    -3.2490    -5.5050 h1         1 6EJ       0.036200
     40 H7           2.4020    -2.6680    -6.6880 h1         1 6EJ       0.036200
     41 H8           4.7790    -3.0360    -9.9190 h1         1 6EJ       0.065200
     42 H10         11.6820    -2.1060   -14.1430 h1         1 6EJ       0.074700
     43 H11         11.5010    -1.5400   -12.4710 h1         1 6EJ       0.074700
     44 H12         -1.7480    -0.0060    -1.2000 ha         1 6EJ       0.149000
     45 H13          4.4980    -3.3260    -7.8090 hc         1 6EJ       0.057200
     46 H14          5.4020    -2.1870    -6.7940 hc         1 6EJ       0.057200
     47 H15          1.9680    -0.3070    -6.8870 h1         1 6EJ       0.036200
     48 H16          2.8360     0.8390    -5.8510 h1         1 6EJ       0.036200
     49 H17          4.3570    -0.8900    -2.9970 h1         1 6EJ       0.077200
     50 H18          4.3560     0.8910    -2.9970 h1         1 6EJ       0.077200
     51 H19         10.3580    -4.1300   -13.5960 h1         1 6EJ       0.073700
     52 H20         11.7760    -4.0040   -12.5360 h1         1 6EJ       0.073700
     53 H21          2.3580     0.8930    -4.1220 hc         1 6EJ       0.078700
     54 H22          3.1940    -1.4690    -8.7570 h1         1 6EJ       0.024700
     55 H23          1.3130    -1.3330    -4.7640 h1         1 6EJ       0.046200
     56 H24          2.5460    -2.1310    -3.7770 h1         1 6EJ       0.046200
     57 H26          4.3430    -1.6570   -11.1120 h1         1 6EJ       0.065200
     58 H25          5.5480    -0.2660    -9.5950 hn         1 6EJ       0.409800
     59 H9           7.7240    -3.8270   -10.2770 ha         1 6EJ       0.160000
@<TRIPOS>BOND
     1    33    15 1
     2    11    15 ar
     3    11     1 ar
     4    25    26 ar
     5    25    16 ar
     6    15    12 ar
     7    26    17 ar
     8     8    16 1
     9     8    29 1
    10    16     9 ar
    11     1     2 ar
    12    19     6 1
    13    19    28 1
    14    23     6 1
    15    23    29 1
    16    23    18 1
    17    17    32 1
    18    17    14 ar
    19    24    28 1
    20    24    22 1
    21    12    22 1
    22    12    13 ar
    23    32    10 1
    24     7    28 1
    25     7    18 1
    26    22    20 1
    27     9    14 ar
    28    14    31 1
    29     2    13 ar
    30     2     3 1
    31    13    27 1
    32    10    21 1
    33    21    31 1
    34     3     4 2
    35    20    27 1
    36    27     5 1
    37     4     5 1
    38     5    30 2
    39     1    34 1
    40     3    35 1
    41     4    36 1
    42     6    37 1
    43     6    38 1
    44     7    39 1
    45     7    40 1
    46     8    41 1
    47     9    59 1
    48    10    42 1
    49    10    43 1
    50    11    44 1
    51    18    45 1
    52    18    46 1
    53    19    47 1
    54    19    48 1
    55    20    49 1
    56    20    50 1
    57    21    51 1
    58    21    52 1
    59    22    53 1
    60    23    54 1
    61    24    55 1
    62    24    56 1
    63     8    57 1
    64    29    58 1
@<TRIPOS>SUBSTRUCTURE
     1 6EJ         1 TEMP              0 ****  ****    0 ROOT
