@<TRIPOS>MOLECULE
6EJ
   59    64     1     0     0
SMALL
bcc


@<TRIPOS>ATOM
      1 C4           0.0000     0.0000     0.0000 ca         1 6EJ      -0.010000
      2 C5           1.3990     0.0000     0.0000 ca         1 6EJ      -0.139800
      3 C6           2.2080     0.0000     1.2180 cc         1 6EJ      -0.002200
      4 C7           3.5610     0.0000     1.0760 cd         1 6EJ      -0.215200
      5 C8           4.1690    -0.0000    -0.1980 c          1 6EJ       0.616700
      6 C17          4.0010     0.0600    -7.4800 c3         1 6EJ      -0.030900
      7 C20          3.3520    -2.4610    -6.2100 c3         1 6EJ       0.153300
      8 C22          5.0030    -2.0720   -10.3600 c3         1 6EJ       0.179500
      9 C24          7.8110    -2.9120   -10.8500 ca         1 6EJ      -0.160300
     10 C28         11.0430    -2.1130   -13.2680 c3         1 6EJ       0.171400
     11 C3          -0.6650    -0.0070    -1.1970 ca         1 6EJ      -0.173000
     12 C33          1.3980    -0.0010    -2.4290 ca         1 6EJ      -0.181300
     13 C34          2.0700    -0.0000    -1.2270 ca         1 6EJ      -0.058400
     14 C25          8.8680    -2.7450   -11.7370 ca         1 6EJ      -0.006200
     15 C2           0.0180    -0.0140    -2.4120 ca         1 6EJ       0.175900
     16 C23          6.7160    -2.0720   -10.9870 ca         1 6EJ       0.286600
     17 C30          8.7660    -1.7460   -12.7050 ca         1 6EJ       0.497600
     18 C19          4.4510    -2.3850    -7.2730 c3         1 6EJ      -0.030900
     19 C16          2.9160    -0.0850    -6.4110 c3         1 6EJ       0.153300
     20 C11          3.7900     0.0000    -2.7540 c3         1 6EJ       0.047000
     21 C27         10.8240    -3.5590   -12.8030 c3         1 6EJ       0.167400
     22 C12          2.4470    -0.0000    -3.5150 c3         1 6EJ       0.020600
     23 C18          4.1290    -1.2550    -8.2550 c3         1 6EJ       0.142500
     24 C14          2.3230    -1.2580    -4.3780 c3         1 6EJ       0.152800
     25 N32          6.7020    -1.1560   -11.9350 nb         1 6EJ      -0.314000
     26 N31          7.6800    -0.9920   -12.7500 nb         1 6EJ      -0.272000
     27 N10          3.4310     0.0010    -1.3280 n          1 6EJ       0.079000
     28 N15          3.2700    -1.1790    -5.4970 n3         1 6EJ      -0.541600
     29 N21          5.2100    -1.1400    -9.2420 n7         1 6EJ      -0.633200
     30 O9           5.3850     0.0010    -0.2790 o          1 6EJ      -0.681500
     31 O26          9.9650    -3.5370   -11.6570 os         1 6EJ      -0.286900
     32 O29          9.7710    -1.5460   -13.5980 os         1 6EJ      -0.400100
     33 F1          -0.6710    -0.0210    -3.5740 f          1 6EJ      -0.126900
     34 H1          -0.5500     0.0060     0.9340 ha         1 6EJ       0.111000
     35 H2           1.7470     0.0000     2.1980 ha         1 6EJ       0.111000
     36 H3           4.1860     0.0010     1.9610 ha         1 6EJ       0.135000
     37 H4           3.7290     0.8550    -8.1630 hc         1 6EJ       0.027700
     38 H5           4.9460     0.2920    -7.0050 hc         1 6EJ       0.027700
     39 H6           3.5860    -3.2490    -5.5050 h1         1 6EJ       0.010950
     40 H7           2.4020    -2.6680    -6.6880 h1         1 6EJ       0.010950
     41 H8           4.7790    -3.0360    -9.9190 h1         1 6EJ       0.024200
     42 H10         11.6820    -2.1060   -14.1430 h1         1 6EJ       0.029700
     43 H11         11.5010    -1.5400   -12.4710 h1         1 6EJ       0.029700
     44 H12         -1.7480    -0.0060    -1.2000 ha         1 6EJ       0.123000
     45 H13          4.4980    -3.3260    -7.8090 hc         1 6EJ       0.027700
     46 H14          5.4020    -2.1870    -6.7940 hc         1 6EJ       0.027700
     47 H15          1.9680    -0.3070    -6.8870 h1         1 6EJ       0.010950
     48 H16          2.8360     0.8390    -5.8510 h1         1 6EJ       0.010950
     49 H17          4.3570    -0.8900    -2.9970 h1         1 6EJ       0.044200
     50 H18          4.3560     0.8910    -2.9970 h1         1 6EJ       0.044200
     51 H19         10.3580    -4.1300   -13.5960 h1         1 6EJ       0.029200
     52 H20         11.7760    -4.0040   -12.5360 h1         1 6EJ       0.029200
     53 H21          2.3580     0.8930    -4.1220 hc         1 6EJ       0.053700
     54 H22          3.1940    -1.4690    -8.7570 h1         1 6EJ       0.008700
     55 H23          1.3130    -1.3330    -4.7640 h1         1 6EJ       0.020700
     56 H24          2.5460    -2.1310    -3.7770 h1         1 6EJ       0.020700
     57 H26          4.3430    -1.6570   -11.1120 h1         1 6EJ       0.024200
     58 H25          5.5480    -0.2660    -9.5950 hn         1 6EJ       0.294800
     59 H9           7.7240    -3.8270   -10.2770 ha         1 6EJ       0.130000
@<TRIPOS>BOND
     1     1     2 ar  
     2     1    11 ar  
     3     1    34 1   
     4     2     3 1   
     5     2    13 ar  
     6     3     4 2   
     7     3    35 1   
     8     4     5 1   
     9     4    36 1   
    10     5    27 1   
    11     5    30 2   
    12     6    19 1   
    13     6    23 1   
    14     6    37 1   
    15     6    38 1   
    16     7    18 1   
    17     7    28 1   
    18     7    39 1   
    19     7    40 1   
    20     8    16 1   
    21     8    29 1   
    22     8    41 1   
    23     8    57 1   
    24     9    14 ar  
    25     9    16 ar  
    26     9    59 1   
    27    10    21 1   
    28    10    32 1   
    29    10    42 1   
    30    10    43 1   
    31    11    15 ar  
    32    11    44 1   
    33    12    13 ar  
    34    12    15 ar  
    35    12    22 1   
    36    13    27 1   
    37    14    17 ar  
    38    14    31 1   
    39    15    33 1   
    40    16    25 ar  
    41    17    26 ar  
    42    17    32 1   
    43    18    23 1   
    44    18    45 1   
    45    18    46 1   
    46    19    28 1   
    47    19    47 1   
    48    19    48 1   
    49    20    22 1   
    50    20    27 1   
    51    20    49 1   
    52    20    50 1   
    53    21    31 1   
    54    21    51 1   
    55    21    52 1   
    56    22    24 1   
    57    22    53 1   
    58    23    29 1   
    59    23    54 1   
    60    24    28 1   
    61    24    55 1   
    62    24    56 1   
    63    25    26 ar  
    64    29    58 1   
@<TRIPOS>SUBSTRUCTURE
     1 6EJ         1 TEMP              0 ****  ****    0 ROOT
