@<TRIPOS>MOLECULE
6EL
   29    31     1     0     0
SMALL
bcc


@<TRIPOS>ATOM
      1 O            0.0000     0.0000     0.0000 o          1 6EL      -0.631500
      2 C            1.2130     0.0000     0.0000 c          1 6EL       0.602500
      3 NE2          1.8710     0.0000     1.1690 ns         1 6EL      -0.134500
      4 CD           3.2100    -0.0120     1.2440 c          1 6EL       0.605500
      5 OE1          3.7440    -0.0210     2.3330 o          1 6EL      -0.634500
      6 CG           4.0630    -0.0140     0.0030 c3         1 6EL      -0.087400
      7 CB           3.3000    -0.7070    -1.1310 c3         1 6EL      -0.059400
      8 CA           1.9510    -0.0070    -1.3130 c3         1 6EL      -0.036300
      9 N            1.1590    -0.7240    -2.3160 n          1 6EL      -0.112400
     10 CAN          0.7780    -2.0100    -2.2090 c          1 6EL       0.665600
     11 OAC          1.0330    -2.7490    -1.2800 o          1 6EL      -0.615500
     12 CAO          0.7120    -0.1800    -3.4620 c          1 6EL       0.665600
     13 OAD          0.8980     0.9640    -3.8240 o          1 6EL      -0.615500
     14 CAQ         -0.0440    -1.2090    -4.2070 ca         1 6EL      -0.166600
     15 CAP         -0.0020    -2.3710    -3.4120 ca         1 6EL      -0.166600
     16 CAH         -0.7170    -1.2270    -5.4190 ca         1 6EL      -0.017000
     17 CAF         -1.3400    -2.3910    -5.8420 ca         1 6EL      -0.087000
     18 CAE         -1.2950    -3.5320    -5.0630 ca         1 6EL      -0.087000
     19 CAG         -0.6330    -3.5260    -3.8440 ca         1 6EL      -0.017000
     20 H1           1.3420     0.0090     2.0180 hn         1 6EL       0.199500
     21 H2           4.9840    -0.5510     0.1980 hc         1 6EL       0.049200
     22 H3           4.2860     1.0070    -0.2830 hc         1 6EL       0.049200
     23 H4           3.1370    -1.7470    -0.8760 hc         1 6EL       0.046700
     24 H5           3.8710    -0.6360    -2.0480 hc         1 6EL       0.046700
     25 H6           2.1160     1.0130    -1.6380 h1         1 6EL       0.080700
     26 H7          -0.7560    -0.3360    -6.0330 ha         1 6EL       0.118000
     27 H8          -1.8610    -2.4090    -6.7920 ha         1 6EL       0.110000
     28 H9          -1.7860    -4.4360    -5.4040 ha         1 6EL       0.110000
     29 H10         -0.6010    -4.4230    -3.2380 ha         1 6EL       0.118000
@<TRIPOS>BOND
     1     1     2 2   
     2     2     3 1   
     3     2     8 1   
     4     3     4 1   
     5     3    20 1   
     6     4     5 2   
     7     4     6 1   
     8     6     7 1   
     9     6    21 1   
    10     6    22 1   
    11     7     8 1   
    12     7    23 1   
    13     7    24 1   
    14     8     9 1   
    15     8    25 1   
    16     9    10 1   
    17     9    12 1   
    18    10    11 2   
    19    10    15 1   
    20    12    13 2   
    21    12    14 1   
    22    14    15 ar  
    23    14    16 ar  
    24    15    19 ar  
    25    16    17 ar  
    26    16    26 1   
    27    17    18 ar  
    28    17    27 1   
    29    18    19 ar  
    30    18    28 1   
    31    19    29 1   
@<TRIPOS>SUBSTRUCTURE
     1 6EL         1 TEMP              0 ****  ****    0 ROOT
