@<TRIPOS>MOLECULE
6EM
   28    27     1     0     0
SMALL
bcc


@<TRIPOS>ATOM
      1 C1           0.0000     0.0000     0.0000 c3         1 6EM      -0.011100
      2 C2           1.5310     0.0000     0.0000 c3         1 6EM      -0.052400
      3 C3           2.0400     0.0000     1.4430 c3         1 6EM      -0.104500
      4 C5           3.5380    -0.1660     1.4460 c          1 6EM       0.316100
      5 O6           4.2540     0.8010     1.2860 o          1 6EM      -0.367100
      6 N7           4.0820    -1.3860     1.6280 nz         1 6EM       0.216600
      7 N4           1.6860     1.2710     2.0880 n4         1 6EM       0.060200
      8 H1          -0.3610    -0.5070    -0.8860 hc         1 6EM       0.039033
      9 H2          -0.3610    -0.5140     0.8830 hc         1 6EM       0.039033
     10 H3          -0.3610     1.0210     0.0040 hc         1 6EM       0.039033
     11 H4           1.8920    -0.8840    -0.5110 hc         1 6EM       0.065200
     12 H5           1.8920     0.8850    -0.5110 hc         1 6EM       0.065200
     13 H6           1.5850    -0.8190     1.9860 hx         1 6EM       0.104700
     14 H7           2.1310     3.2790     1.6410 hx         1 6EM       0.089589
     15 H8           0.9240     2.5240     0.5780 hx         1 6EM       0.089589
     16 H9           2.6350     2.0590     0.4510 hx         1 6EM       0.089589
     17 H10          0.1830     1.7960     3.4530 hx         1 6EM       0.089589
     18 H11          0.0110     0.1880     2.7350 hx         1 6EM       0.089589
     19 H12         -0.3560     1.6290     1.7760 hx         1 6EM       0.089589
     20 H13          3.5210     1.8800     2.8980 hx         1 6EM       0.089589
     21 H14          2.1090     2.2170     3.9100 hx         1 6EM       0.089589
     22 H15          2.7210     0.5630     3.7670 hx         1 6EM       0.089589
     23 H16          4.8410    -1.3190     2.2770 hn         1 6EM       0.266133
     24 H17          4.4200    -1.7340     0.7530 hn         1 6EM       0.266133
     25 C8           1.8460     2.3700     1.1260 c3         1 6EM      -0.005900
     26 C9           0.2890     1.2180     2.5430 c3         1 6EM      -0.005900
     27 C10          2.5670     1.4970     3.2410 c3         1 6EM      -0.005900
     28 H73          3.3880    -2.0100     1.9900 hn         1 6EM       0.266133
@<TRIPOS>BOND
     1     1     2 1   
     2     1     8 1   
     3     1     9 1   
     4     1    10 1   
     5     2     3 1   
     6     2    11 1   
     7     2    12 1   
     8     3     4 1   
     9     3     7 1   
    10     3    13 1   
    11     4     5 2   
    12     4     6 1   
    13     6    23 1   
    14     6    24 1   
    15     6    28 1   
    16     7    25 1   
    17     7    26 1   
    18     7    27 1   
    19    14    25 1   
    20    15    25 1   
    21    16    25 1   
    22    17    26 1   
    23    18    26 1   
    24    19    26 1   
    25    20    27 1   
    26    21    27 1   
    27    22    27 1   
@<TRIPOS>SUBSTRUCTURE
     1 6EM         1 TEMP              0 ****  ****    0 ROOT
