@<TRIPOS>MOLECULE
molecule
   28    27     1     0     0
SMALL
bcc


@<TRIPOS>ATOM
      1 C1           0.0000     0.0000     0.0000 c3         1 6EM      -0.106100
      2 C2           1.5310     0.0000     0.0000 c3         1 6EM      -0.115400
      3 C3           2.0400     0.0000     1.4430 c3         1 6EM       0.041500
      4 C5           3.5380    -0.1660     1.4460 c          1 6EM       0.476100
      5 O6           4.2540     0.8010     1.2860 o          1 6EM      -0.368100
      6 N7           4.0820    -1.3860     1.6280 nz         1 6EM      -0.680400
      7 N4           1.6860     1.2710     2.0880 n4         1 6EM      -0.570800
      8 H1          -0.3610    -0.5070    -0.8860 hc         1 6EM       0.073367
      9 H2          -0.3610    -0.5140     0.8830 hc         1 6EM       0.073367
     10 H3          -0.3610     1.0210     0.0040 hc         1 6EM       0.073367
     11 H4           1.8920    -0.8840    -0.5110 hc         1 6EM       0.097700
     12 H5           1.8920     0.8850    -0.5110 hc         1 6EM       0.097700
     13 H6           1.5850    -0.8190     1.9860 hx         1 6EM       0.124700
     14 H7           2.1310     3.2790     1.6410 hx         1 6EM       0.115144
     15 H8           0.9240     2.5240     0.5780 hx         1 6EM       0.115144
     16 H9           2.6350     2.0590     0.4510 hx         1 6EM       0.115144
     17 H10          0.1830     1.7960     3.4530 hx         1 6EM       0.115144
     18 H11          0.0110     0.1880     2.7350 hx         1 6EM       0.115144
     19 H12         -0.3560     1.6290     1.7760 hx         1 6EM       0.115144
     20 H13          3.5210     1.8800     2.8980 hx         1 6EM       0.115144
     21 H14          2.1090     2.2170     3.9100 hx         1 6EM       0.115144
     22 H15          2.7210     0.5630     3.7670 hx         1 6EM       0.115144
     23 H16          4.8410    -1.3190     2.2770 hn         1 6EM       0.500467
     24 H17          4.4200    -1.7340     0.7530 hn         1 6EM       0.500467
     25 C8           1.8460     2.3700     1.1260 c3         1 6EM       0.081767
     26 C9           0.2890     1.2180     2.5430 c3         1 6EM       0.081767
     27 C10          2.5670     1.4970     3.2410 c3         1 6EM       0.081767
     28 H73          3.3880    -2.0100     1.9900 hn         1 6EM       0.500467
@<TRIPOS>BOND
     1    26     7 1
     2    27     7 1
     3    25     7 1
     4     7     3 1
     5     6     4 1
     6     3     4 1
     7     3     2 1
     8     4     5 2
     9     1     2 1
    10     1     8 1
    11     1     9 1
    12     1    10 1
    13     2    11 1
    14     2    12 1
    15     3    13 1
    16    25    14 1
    17    25    15 1
    18    25    16 1
    19    26    17 1
    20    26    18 1
    21    26    19 1
    22    27    20 1
    23    27    21 1
    24    27    22 1
    25     6    23 1
    26     6    24 1
    27    28     6 1
@<TRIPOS>SUBSTRUCTURE
     1 6EM         1 TEMP              0 ****  ****    0 ROOT
