@<TRIPOS>MOLECULE
6EN
   31    33     1     0     0
SMALL
bcc


@<TRIPOS>ATOM
      1 C15          0.0000     0.0000     0.0000 ca         1 6EN       0.259800
      2 C17         -0.0320    -0.0010    -2.3070 ca         1 6EN       0.413200
      3 C20          1.4080     0.0000     0.0000 ca         1 6EN      -0.240100
      4 O01          6.1690    -2.2880     3.7300 o          1 6EN      -0.879800
      5 O03          4.9100    -1.8390     1.9570 o          1 6EN      -0.879800
      6 C04          4.3540    -0.6570     3.8920 ca         1 6EN      -0.115600
      7 C05          4.5480    -0.4830     5.2670 ca         1 6EN      -0.153300
      8 C06          3.7750     0.4380     5.9420 ca         1 6EN       0.321200
      9 N07          2.8600     1.1530     5.3130 nb         1 6EN      -0.596000
     10 C08          2.6380     1.0300     4.0230 ca         1 6EN       0.302200
     11 C09          3.3750     0.1290     3.2560 ca         1 6EN      -0.087700
     12 C11          1.8200     0.0000     1.4070 cc         1 6EN       0.018800
     13 C12          0.6920     0.0010     2.1440 cd         1 6EN      -0.382100
     14 N13         -0.4050    -0.0050     1.3130 na         1 6EN       0.300900
     15 C14         -1.7990    -0.0070     1.7630 c3         1 6EN      -0.000400
     16 N16         -0.6600    -0.0000    -1.1510 nb         1 6EN      -0.610000
     17 C18          1.3530    -0.0000    -2.3820 ca         1 6EN      -0.295300
     18 C19          2.0950    -0.0000    -1.2150 ca         1 6EN       0.014000
     19 H1          -0.6100    -0.0010    -3.2230 h4         1 6EN      -0.036900
     20 H3           5.2950    -1.0640     5.7940 ha         1 6EN       0.134000
     21 H4           3.9190     0.5770     7.0060 h4         1 6EN      -0.037900
     22 H5           1.8790     1.6400     3.5490 h4         1 6EN      -0.017900
     23 H6           3.9080    -0.0390     1.2570 hn         1 6EN       0.318800
     24 H7           0.6540     0.0040     3.2270 h4         1 6EN       0.170000
     25 H8          -2.3350    -0.8130     1.2760 h1         1 6EN       0.011700
     26 H9          -1.8320    -0.1470     2.8360 h1         1 6EN       0.011700
     27 H10         -2.2610     0.9390     1.5080 h1         1 6EN       0.011700
     28 H11          1.8480    -0.0010    -3.3450 ha         1 6EN       0.105000
     29 H12          3.1780    -0.0000    -1.2430 ha         1 6EN       0.110000
     30 N10          3.1390     0.0010     1.8950 nu         1 6EN      -0.150400
     31 C02          5.1590    -1.6300     3.1280 c          1 6EN       0.980200
@<TRIPOS>BOND
     1     1     3 ar  
     2     1    14 1   
     3     1    16 ar  
     4     2    16 ar  
     5     2    17 ar  
     6     2    19 1   
     7     3    12 1   
     8     3    18 ar  
     9     4    31 1   
    10     5    31 1   
    11     6     7 ar  
    12     6    11 ar  
    13     6    31 1   
    14     7     8 ar  
    15     7    20 1   
    16     8     9 ar  
    17     8    21 1   
    18     9    10 ar  
    19    10    11 ar  
    20    10    22 1   
    21    11    30 1   
    22    12    13 2   
    23    12    30 1   
    24    13    14 1   
    25    13    24 1   
    26    14    15 1   
    27    15    25 1   
    28    15    26 1   
    29    15    27 1   
    30    17    18 ar  
    31    17    28 1   
    32    18    29 1   
    33    23    30 1   
@<TRIPOS>SUBSTRUCTURE
     1 6EN         1 TEMP              0 ****  ****    0 ROOT
