@<TRIPOS>MOLECULE
6EO
   30    31     1     0     0
SMALL
bcc


@<TRIPOS>ATOM
      1 C10          0.0000     0.0000     0.0000 ca         1 6EO      -0.075500
      2 C15          2.0740     0.0000     1.1960 ca         1 6EO      -0.075500
      3 C17          2.1650    -3.9030    -3.1500 ca         1 6EO       0.361200
      4 C20          4.4320    -4.7120    -4.4470 ca         1 6EO      -0.167300
      5 O01          5.3270    -1.2630    -3.9660 o          1 6EO      -0.881800
      6 O03          6.6020    -2.8670    -4.8200 o          1 6EO      -0.881800
      7 C04          4.3480    -3.3820    -4.0180 ca         1 6EO      -0.107600
      8 C05          3.1820    -2.9760    -3.3470 ca         1 6EO      -0.187700
      9 N06          3.0480    -1.6680    -2.8880 ns         1 6EO      -0.001100
     10 C07          2.3860    -1.4210    -1.7410 c          1 6EO       0.544100
     11 C08          2.1360    -0.0010    -1.3050 c3         1 6EO      -0.048100
     12 C09          1.3830     0.0000     0.0000 ca         1 6EO      -0.043300
     13 C11         -0.6910     0.0060     1.1970 ca         1 6EO      -0.102500
     14 C12          0.0010     0.0060     2.3950 ca         1 6EO      -0.034600
     15 Cl1         -0.8660     0.0120     3.8990 cl         1 6EO      -0.061400
     16 C14          1.3850    -0.0000     2.3940 ca         1 6EO      -0.102500
     17 O16          1.9920    -2.3430    -1.0580 o          1 6EO      -0.668100
     18 N18          2.2900    -5.1420    -3.5780 nb         1 6EO      -0.602000
     19 C19          3.3720    -5.5610    -4.2060 ca         1 6EO       0.340200
     20 H1          -0.5420     0.0000    -0.9380 ha         1 6EO       0.109500
     21 H2           3.1570    -0.0020     1.1950 ha         1 6EO       0.109500
     22 H3           1.2600    -3.6040    -2.6360 h4         1 6EO      -0.002900
     23 H4           5.3150    -5.0680    -4.9640 ha         1 6EO       0.134000
     24 H6           3.4000    -0.9080    -3.4350 hn         1 6EO       0.218500
     25 H7           3.0830     0.5090    -1.1760 hc         1 6EO       0.032700
     26 H8           1.5510     0.5110    -2.0600 hc         1 6EO       0.032700
     27 H9          -1.7740     0.0060     1.1970 ha         1 6EO       0.107000
     28 H10          1.9280    -0.0000     3.3320 ha         1 6EO       0.107000
     29 H11          3.4290    -6.5910    -4.5370 h4         1 6EO      -0.038900
     30 C02          5.4530    -2.4330    -4.2650 c          1 6EO       0.986200
@<TRIPOS>BOND
     1     1    12 ar  
     2     1    13 ar  
     3     1    20 1   
     4     2    12 ar  
     5     2    16 ar  
     6     2    21 1   
     7     3     8 ar  
     8     3    18 ar  
     9     3    22 1   
    10     4     7 ar  
    11     4    19 ar  
    12     4    23 1   
    13     5    30 1   
    14     6    30 1   
    15     7     8 ar  
    16     7    30 1   
    17     8     9 1   
    18     9    10 1   
    19     9    24 1   
    20    10    11 1   
    21    10    17 2   
    22    11    12 1   
    23    11    25 1   
    24    11    26 1   
    25    13    14 ar  
    26    13    27 1   
    27    14    15 1   
    28    14    16 ar  
    29    16    28 1   
    30    18    19 ar  
    31    19    29 1   
@<TRIPOS>SUBSTRUCTURE
     1 6EO         1 TEMP              0 ****  ****    0 ROOT
