@<TRIPOS>MOLECULE
molecule
   37    39     1     0     0
SMALL
bcc


@<TRIPOS>ATOM
      1 C10          0.0000     0.0000     0.0000 cc         1 6EP      -0.458300
      2 C13         -2.7220    -0.1080     0.7230 c3         1 6EP       0.198700
      3 C15         -4.1770    -0.0640     2.7590 ca         1 6EP      -0.082000
      4 C17         -6.5460    -0.3770     2.6070 ca         1 6EP       0.030400
      5 C20         -5.2010    -0.4330     0.6260 ca         1 6EP      -0.074300
      6 C21         -5.0840    -0.5860    -0.8690 c3         1 6EP      -0.048800
      7 C24          0.7010     0.0080     6.2090 ca         1 6EP      -0.220300
      8 O01          3.9100    -1.5440     5.7140 o          1 6EP      -0.823300
      9 O03          2.9400    -1.0670     7.6530 o          1 6EP      -0.823300
     10 C04          1.8100    -0.5300     5.5460 ca         1 6EP      -0.063600
     11 C05          1.8060    -0.5350     4.1500 ca         1 6EP      -0.202300
     12 C06          0.7110    -0.0080     3.4790 ca         1 6EP       0.489800
     13 N07          0.6920    -0.0050     2.0810 na         1 6EP       0.060600
     14 N08          1.8130     0.0000     1.2400 nd         1 6EP      -0.485800
     15 C09          1.3990     0.0000     0.0000 cc         1 6EP       0.345200
     16 C11         -0.4180     0.0000     1.2930 cd         1 6EP       0.168800
     17 O12         -1.7050     0.0050     1.7210 os         1 6EP      -0.291900
     18 C14         -4.0710    -0.2040     1.3880 ca         1 6EP      -0.087300
     19 C16         -5.4140    -0.1530     3.3690 ca         1 6EP      -0.128000
     20 C19         -6.4400    -0.5120     1.2330 ca         1 6EP      -0.129000
     21 N22         -0.3160     0.4910     4.1470 nb         1 6EP      -0.738000
     22 C23         -0.3500     0.5070     5.4650 ca         1 6EP       0.394200
     23 H1          -0.6370     0.0020    -0.8760 ha         1 6EP       0.142000
     24 H2          -2.6970     0.7650     0.0820 h1         1 6EP       0.046700
     25 H3          -2.5470    -0.9970     0.1300 h1         1 6EP       0.046700
     26 H4          -3.2900     0.1120     3.3560 ha         1 6EP       0.182000
     27 H5          -6.0700    -0.7280    -1.2950 hc         1 6EP       0.043700
     28 H6          -4.6330     0.3050    -1.2880 hc         1 6EP       0.043700
     29 H7          -4.4650    -1.4450    -1.0960 hc         1 6EP       0.043700
     30 H8           0.6630     0.0260     7.2920 ha         1 6EP       0.164000
     31 H10          2.6450    -0.9430     3.5990 ha         1 6EP       0.175000
     32 H11          2.0320     0.0020    -0.8790 h4         1 6EP       0.039100
     33 H12         -5.4970    -0.0430     4.4430 ha         1 6EP       0.146000
     34 H13         -7.3270    -0.6870     0.6360 ha         1 6EP       0.138000
     35 H14         -1.2120     0.9250     5.9710 h4         1 6EP       0.004100
     36 C02          2.9560    -1.0800     6.3060 c          1 6EP       0.881200
     37 Cl1         -8.1010    -0.4880     3.3720 cl         1 6EP      -0.126400
@<TRIPOS>BOND
     1    15     1 1
     2    15    14 2
     3     1    16 2
     4    14    13 1
     5    16    13 1
     6    16    17 1
     7    13    12 1
     8     6     5 1
     9     2    17 1
    10     2    18 1
    11    21    12 ar
    12    21    22 ar
    13    12    11 ar
    14     5    18 ar
    15     5    20 ar
    16    18     3 ar
    17    22     7 ar
    18    11    10 ar
    19    20     4 ar
    20     3    19 ar
    21     7    10 ar
    22    10    36 1
    23     4    19 ar
    24     4    37 1
    25    36     8 1
    26    36     9 1
    27     1    23 1
    28     2    24 1
    29     2    25 1
    30     3    26 1
    31     6    27 1
    32     6    28 1
    33     6    29 1
    34     7    30 1
    35    11    31 1
    36    15    32 1
    37    19    33 1
    38    20    34 1
    39    22    35 1
@<TRIPOS>SUBSTRUCTURE
     1 6EP         1 TEMP              0 ****  ****    0 ROOT
