@<TRIPOS>MOLECULE
molecule
   41    43     1     0     0
SMALL
bcc


@<TRIPOS>ATOM
      1 CAO          0.0000     0.0000     0.0000 ca         1 6EQ      -0.206000
      2 CAW          1.3840     0.0000     0.0000 ca         1 6EQ       0.142100
      3 OAD          2.0660    -0.0010    -1.1730 oh         1 6EQ      -0.469100
      4 CAZ          2.0780     0.0000     1.2200 ca         1 6EQ      -0.122600
      5 CAS          3.5500    -0.0000     1.2320 c          1 6EQ       0.881200
      6 OAC          4.1670    -0.0000     0.1850 o          1 6EQ      -0.829300
      7 OAA          4.2130    -0.0010     2.4060 o          1 6EQ      -0.829300
      8 CAN          1.3660    -0.0000     2.4240 ca         1 6EQ      -0.067000
      9 CAM          0.0010     0.0000     2.4120 ca         1 6EQ      -0.203000
     10 CAV         -0.6920     0.0070     1.2040 ca         1 6EQ       0.041600
     11 NAR         -2.0860     0.0070     1.2030 ns         1 6EQ      -0.479100
     12 CAT         -2.7600     0.6940     0.2590 c          1 6EQ       0.774100
     13 OAB         -2.1540     1.2450    -0.6400 o          1 6EQ      -0.626100
     14 NAQ         -4.1040     0.7720     0.3130 ns         1 6EQ      -0.500100
     15 CAU         -4.8110     1.3930    -0.7230 ca         1 6EQ       0.088600
     16 CAP         -4.3470     1.3090    -2.0280 ca         1 6EQ      -0.118000
     17 CAI         -5.9810     2.0900    -0.4460 ca         1 6EQ      -0.171000
     18 CAH         -6.6820     2.7040    -1.4670 ca         1 6EQ      -0.114000
     19 CAL         -6.2230     2.6310    -2.7660 ca         1 6EQ      -0.147000
     20 CAY         -5.0530     1.9290    -3.0540 cp         1 6EQ      -0.019000
     21 CAX         -4.5620     1.8430    -4.4520 cp         1 6EQ      -0.031000
     22 CAJ         -3.3960     1.1370    -4.7420 ca         1 6EQ      -0.116000
     23 CAF         -2.9470     1.0560    -6.0440 ca         1 6EQ      -0.130000
     24 CAE         -3.6530     1.6730    -7.0610 ca         1 6EQ      -0.132000
     25 CAG         -4.8110     2.3760    -6.7800 ca         1 6EQ      -0.130000
     26 CAK         -5.2680     2.4630    -5.4810 ca         1 6EQ      -0.116000
     27 H1          -0.5420     0.0050    -0.9380 ha         1 6EQ       0.145000
     28 H2           1.8260    -0.7620    -1.6760 ho         1 6EQ       0.395000
     29 H4           1.8990    -0.0030     3.3680 ha         1 6EQ       0.161000
     30 H5          -0.5460     0.0030     3.3470 ha         1 6EQ       0.105000
     31 H6          -2.5860    -0.5210     1.8910 hn         1 6EQ       0.306500
     32 H7          -4.5980     0.3650     1.0820 hn         1 6EQ       0.313500
     33 H8          -3.4370     0.7630    -2.2470 ha         1 6EQ       0.171000
     34 H9          -6.3460     2.1500     0.5720 ha         1 6EQ       0.125000
     35 H10         -7.5930     3.2470    -1.2460 ha         1 6EQ       0.124000
     36 H11         -6.7750     3.1140    -3.5640 ha         1 6EQ       0.127000
     37 H12         -2.8430     0.6540    -3.9460 ha         1 6EQ       0.138500
     38 H13         -2.0410     0.5080    -6.2700 ha         1 6EQ       0.127500
     39 H14         -3.2960     1.6070    -8.0820 ha         1 6EQ       0.123000
     40 H15         -5.3590     2.8570    -7.5800 ha         1 6EQ       0.127500
     41 H16         -6.1750     3.0130    -5.2610 ha         1 6EQ       0.138500
@<TRIPOS>BOND
     1    23    24 ar
     2    23    22 ar
     3    24    25 ar
     4    22    21 ar
     5    25    26 ar
     6    21    26 ar
     7    21    20 1
     8     9     8 ar
     9     9    10 ar
    10     8     4 ar
    11    16    20 ar
    12    16    15 ar
    13     6     5 1
    14    11    10 1
    15    11    12 1
    16    20    19 ar
    17    14    15 1
    18    14    12 1
    19    10     1 ar
    20     4     5 1
    21     4     2 ar
    22    15    17 ar
    23    12    13 2
    24     5     7 1
    25    19    18 ar
    26     1     2 ar
    27     2     3 1
    28    17    18 ar
    29     1    27 1
    30     3    28 1
    31     8    29 1
    32     9    30 1
    33    11    31 1
    34    14    32 1
    35    16    33 1
    36    17    34 1
    37    18    35 1
    38    19    36 1
    39    22    37 1
    40    23    38 1
    41    24    39 1
    42    25    40 1
    43    26    41 1
@<TRIPOS>SUBSTRUCTURE
     1 6EQ         1 TEMP              0 ****  ****    0 ROOT
