@<TRIPOS>MOLECULE
6EQ
   41    43     1     0     0
SMALL
bcc


@<TRIPOS>ATOM
      1 CAO          0.0000     0.0000     0.0000 ca         1 6EQ      -0.200000
      2 CAW          1.3840     0.0000     0.0000 ca         1 6EQ       0.165100
      3 OAD          2.0660    -0.0010    -1.1730 oh         1 6EQ      -0.445100
      4 CAZ          2.0780     0.0000     1.2200 ca         1 6EQ      -0.129600
      5 CAS          3.5500    -0.0000     1.2320 c          1 6EQ       0.972200
      6 OAC          4.1670    -0.0000     0.1850 o          1 6EQ      -0.878300
      7 OAA          4.2130    -0.0010     2.4060 o          1 6EQ      -0.878300
      8 CAN          1.3660    -0.0000     2.4240 ca         1 6EQ      -0.034000
      9 CAM          0.0010     0.0000     2.4120 ca         1 6EQ      -0.188000
     10 CAV         -0.6920     0.0070     1.2040 ca         1 6EQ      -0.107400
     11 NAR         -2.0860     0.0070     1.2030 ns         1 6EQ      -0.030100
     12 CAT         -2.7600     0.6940     0.2590 c          1 6EQ       0.544100
     13 OAB         -2.1540     1.2450    -0.6400 o          1 6EQ      -0.677100
     14 NAQ         -4.1040     0.7720     0.3130 ns         1 6EQ      -0.072100
     15 CAU         -4.8110     1.3930    -0.7230 ca         1 6EQ      -0.049400
     16 CAP         -4.3470     1.3090    -2.0280 ca         1 6EQ      -0.102000
     17 CAI         -5.9810     2.0900    -0.4460 ca         1 6EQ      -0.148000
     18 CAH         -6.6820     2.7040    -1.4670 ca         1 6EQ      -0.085000
     19 CAL         -6.2230     2.6310    -2.7660 ca         1 6EQ      -0.129000
     20 CAY         -5.0530     1.9290    -3.0540 cp         1 6EQ      -0.013000
     21 CAX         -4.5620     1.8430    -4.4520 cp         1 6EQ      -0.026000
     22 CAJ         -3.3960     1.1370    -4.7420 ca         1 6EQ      -0.097000
     23 CAF         -2.9470     1.0560    -6.0440 ca         1 6EQ      -0.101500
     24 CAE         -3.6530     1.6730    -7.0610 ca         1 6EQ      -0.109000
     25 CAG         -4.8110     2.3760    -6.7800 ca         1 6EQ      -0.101500
     26 CAK         -5.2680     2.4630    -5.4810 ca         1 6EQ      -0.097000
     27 H1          -0.5420     0.0050    -0.9380 ha         1 6EQ       0.134000
     28 H2           1.8260    -0.7620    -1.6760 ho         1 6EQ       0.373000
     29 H4           1.8990    -0.0030     3.3680 ha         1 6EQ       0.131000
     30 H5          -0.5460     0.0030     3.3470 ha         1 6EQ       0.086000
     31 H6          -2.5860    -0.5210     1.8910 hn         1 6EQ       0.147500
     32 H7          -4.5980     0.3650     1.0820 hn         1 6EQ       0.157500
     33 H8          -3.4370     0.7630    -2.2470 ha         1 6EQ       0.155000
     34 H9          -6.3460     2.1500     0.5720 ha         1 6EQ       0.101000
     35 H10         -7.5930     3.2470    -1.2460 ha         1 6EQ       0.095000
     36 H11         -6.7750     3.1140    -3.5640 ha         1 6EQ       0.107000
     37 H12         -2.8430     0.6540    -3.9460 ha         1 6EQ       0.116500
     38 H13         -2.0410     0.5080    -6.2700 ha         1 6EQ       0.100000
     39 H14         -3.2960     1.6070    -8.0820 ha         1 6EQ       0.097000
     40 H15         -5.3590     2.8570    -7.5800 ha         1 6EQ       0.100000
     41 H16         -6.1750     3.0130    -5.2610 ha         1 6EQ       0.116500
@<TRIPOS>BOND
     1     1     2 ar  
     2     1    10 ar  
     3     1    27 1   
     4     2     3 1   
     5     2     4 ar  
     6     3    28 1   
     7     4     5 1   
     8     4     8 ar  
     9     5     6 1   
    10     5     7 1   
    11     8     9 ar  
    12     8    29 1   
    13     9    10 ar  
    14     9    30 1   
    15    10    11 1   
    16    11    12 1   
    17    11    31 1   
    18    12    13 2   
    19    12    14 1   
    20    14    15 1   
    21    14    32 1   
    22    15    16 ar  
    23    15    17 ar  
    24    16    20 ar  
    25    16    33 1   
    26    17    18 ar  
    27    17    34 1   
    28    18    19 ar  
    29    18    35 1   
    30    19    20 ar  
    31    19    36 1   
    32    20    21 1   
    33    21    22 ar  
    34    21    26 ar  
    35    22    23 ar  
    36    22    37 1   
    37    23    24 ar  
    38    23    38 1   
    39    24    25 ar  
    40    24    39 1   
    41    25    26 ar  
    42    25    40 1   
    43    26    41 1   
@<TRIPOS>SUBSTRUCTURE
     1 6EQ         1 TEMP              0 ****  ****    0 ROOT
