@<TRIPOS>MOLECULE
molecule
   82    82     1     0     0
SMALL
bcc


@<TRIPOS>ATOM
      1 C01          0.0000     0.0000     0.0000 c3         1 6ES      -0.090100
      2 C02          1.5300     0.0000     0.0000 c3         1 6ES      -0.088400
      3 C03          2.0400     0.0000     1.4430 c3         1 6ES      -0.070400
      4 C04          3.5700     0.0000     1.4430 c3         1 6ES      -0.137400
      5 C05          4.0730    -0.0000     2.8640 c          1 6ES       0.637100
      6 O06          3.2870    -0.0000     3.7820 o          1 6ES      -0.597000
      7 O07          5.3920    -0.0000     3.1090 os         1 6ES      -0.356900
      8 C08          5.8040    -0.0000     4.5010 c3         1 6ES       0.141400
      9 C09          7.3310    -0.0010     4.5820 c3         1 6ES       0.138100
     10 C10          7.8840    -1.1830     3.7820 c3         1 6ES       0.234400
     11 O11          7.3840    -1.1290     2.4450 os         1 6ES      -0.577200
     12 P12          7.7610    -2.2190     1.3230 p5         1 6ES       1.365800
     13 O13          7.1680    -3.6550     1.7490 o          1 6ES      -0.825000
     14 O14          9.2330    -2.3110     1.1980 o          1 6ES      -0.825000
     15 O15          7.1300    -1.7760    -0.0910 os         1 6ES      -0.554200
     16 C16          7.3740    -2.4840    -1.3080 c3         1 6ES       0.234100
     17 C17          6.0470    -2.9880    -1.8790 c3         1 6ES       0.133100
     18 C18          5.1250    -1.7990    -2.1560 c3         1 6ES       0.135100
     19 C19          5.7910    -0.8630    -3.1650 c3         1 6ES       0.098100
     20 C20          7.1180    -0.3570    -2.5950 c3         1 6ES       0.135100
     21 C21          8.0390    -1.5460    -2.3180 c3         1 6ES       0.133100
     22 O22          9.2780    -1.0740    -1.7840 oh         1 6ES      -0.547300
     23 O23          7.7390     0.5190    -3.5370 oh         1 6ES      -0.584300
     24 O24          4.9310     0.2490    -3.4240 oh         1 6ES      -0.610800
     25 O25          4.8810    -1.0920    -0.9390 oh         1 6ES      -0.584300
     26 O26          5.4240    -3.8640    -0.9360 oh         1 6ES      -0.547300
     27 O27          7.8450     1.2400     4.0290 os         1 6ES      -0.386900
     28 C28          8.0050     2.2660     4.8800 c          1 6ES       0.628100
     29 O29          7.7240     2.1320     6.0470 o          1 6ES      -0.581000
     30 C30          8.5330     3.5850     4.3780 c3         1 6ES      -0.128400
     31 C31          8.6180     4.5760     5.5400 c3         1 6ES      -0.072400
     32 C32          9.1540     5.9160     5.0320 c3         1 6ES      -0.084400
     33 C33          9.2380     6.9070     6.1940 c3         1 6ES      -0.080400
     34 C34          9.7750     8.2450     5.6850 c3         1 6ES      -0.082400
     35 C35          9.8590     9.2370     6.8480 c3         1 6ES      -0.082400
     36 C36         10.3970    10.5760     6.3390 c3         1 6ES      -0.081400
     37 C37         10.4800    11.5660     7.5020 c3         1 6ES      -0.084400
     38 C38         11.0180    12.9060     6.9930 c3         1 6ES      -0.092100
     39 H012        -0.3610    -0.8840     0.5110 hc         1 6ES       0.028033
     40 H013        -0.3610     0.8850     0.5100 hc         1 6ES       0.028033
     41 H011        -0.3610    -0.0010    -1.0210 hc         1 6ES       0.028033
     42 H021         1.8910    -0.8840    -0.5110 hc         1 6ES       0.040700
     43 H022         1.8910     0.8850    -0.5110 hc         1 6ES       0.040700
     44 H031         1.6790    -0.8840     1.9530 hc         1 6ES       0.050700
     45 H032         1.6790     0.8840     1.9530 hc         1 6ES       0.050700
     46 H042         3.9310    -0.8840     0.9320 hc         1 6ES       0.090700
     47 H041         3.9310     0.8850     0.9320 hc         1 6ES       0.090700
     48 H082         5.4170     0.8840     4.9920 h1         1 6ES       0.049200
     49 H081         5.4160    -0.8850     4.9920 h1         1 6ES       0.049200
     50 H091         7.6390    -0.0900     5.6170 h1         1 6ES       0.070700
     51 H102         7.5730    -2.1110     4.2470 h1         1 6ES       0.042700
     52 H101         8.9660    -1.1330     3.7650 h1         1 6ES       0.042700
     53 H161         8.0260    -3.3270    -1.1160 h1         1 6ES       0.065700
     54 H171         6.2340    -3.5200    -2.8040 h1         1 6ES       0.016200
     55 H181         4.1880    -2.1590    -2.5640 h1         1 6ES       0.056700
     56 H191         5.9790    -1.4020    -4.0860 h1         1 6ES       0.029700
     57 H201         6.9310     0.1750    -1.6700 h1         1 6ES       0.056700
     58 H211         8.2200    -2.0840    -3.2410 h1         1 6ES       0.016200
     59 H221         9.9880    -1.3610    -2.3350 ho         1 6ES       0.384500
     60 H231         7.8570     1.3690    -3.1460 ho         1 6ES       0.397500
     61 H241         4.6220     0.2070    -4.3140 ho         1 6ES       0.397000
     62 H251         4.3150    -0.3570    -1.1100 ho         1 6ES       0.397500
     63 H261         5.1890    -4.6710    -1.3650 ho         1 6ES       0.384500
     64 H302         9.5200     3.4410     3.9540 hc         1 6ES       0.072200
     65 H301         7.8680     3.9760     3.6180 hc         1 6ES       0.072200
     66 H312         9.2840     4.1850     6.3000 hc         1 6ES       0.055700
     67 H311         7.6310     4.7200     5.9640 hc         1 6ES       0.055700
     68 H322         8.4880     6.3060     4.2720 hc         1 6ES       0.040200
     69 H321        10.1410     5.7720     4.6080 hc         1 6ES       0.040200
     70 H332         9.9050     6.5160     6.9540 hc         1 6ES       0.042700
     71 H331         8.2520     7.0500     6.6180 hc         1 6ES       0.042700
     72 H342        10.7610     8.1020     5.2610 hc         1 6ES       0.040700
     73 H341         9.1080     8.6360     4.9250 hc         1 6ES       0.040700
     74 H351        10.5250     8.8460     7.6080 hc         1 6ES       0.040700
     75 H352         8.8730     9.3820     7.2720 hc         1 6ES       0.040700
     76 H362        11.3840    10.4310     5.9160 hc         1 6ES       0.040700
     77 H361         9.7320    10.9660     5.5790 hc         1 6ES       0.040700
     78 H371        11.1460    11.1760     8.2620 hc         1 6ES       0.039700
     79 H372         9.4930    11.7100     7.9250 hc         1 6ES       0.039700
     80 H382        10.3520    13.2970     6.2330 hc         1 6ES       0.030700
     81 H381        12.0040    12.7620     6.5700 hc         1 6ES       0.030700
     82 H383        11.0770    13.6080     7.8160 hc         1 6ES       0.030700
@<TRIPOS>BOND
     1    38    37 1
     2    37    36 1
     3    36    35 1
     4    35    34 1
     5    34    33 1
     6    33    32 1
     7    32    31 1
     8     1     2 1
     9     2     3 1
    10    31    30 1
    11    30    28 1
    12     3     4 1
    13     4     5 1
    14    28    29 2
    15    28    27 1
    16     5     7 1
    17     5     6 2
    18     7     8 1
    19    27     9 1
    20     8     9 1
    21     9    10 1
    22    10    11 1
    23    14    12 1
    24    11    12 1
    25    12    13 1
    26    12    15 1
    27    15    16 1
    28    26    17 1
    29    17    16 1
    30    17    18 1
    31    16    21 1
    32    25    18 1
    33    22    21 1
    34    18    19 1
    35    21    20 1
    36    24    19 1
    37    19    20 1
    38    20    23 1
    39     1    39 1
    40     1    40 1
    41     1    41 1
    42     2    42 1
    43     2    43 1
    44     3    44 1
    45     3    45 1
    46     4    46 1
    47     4    47 1
    48     8    48 1
    49     8    49 1
    50     9    50 1
    51    10    51 1
    52    10    52 1
    53    16    53 1
    54    17    54 1
    55    18    55 1
    56    19    56 1
    57    20    57 1
    58    21    58 1
    59    22    59 1
    60    23    60 1
    61    24    61 1
    62    25    62 1
    63    26    63 1
    64    30    64 1
    65    30    65 1
    66    31    66 1
    67    31    67 1
    68    32    68 1
    69    32    69 1
    70    33    70 1
    71    33    71 1
    72    34    72 1
    73    34    73 1
    74    35    74 1
    75    35    75 1
    76    36    76 1
    77    36    77 1
    78    37    78 1
    79    37    79 1
    80    38    80 1
    81    38    81 1
    82    38    82 1
@<TRIPOS>SUBSTRUCTURE
     1 6ES         1 TEMP              0 ****  ****    0 ROOT
