@<TRIPOS>MOLECULE
molecule
   46    48     1     0     0
SMALL
bcc


@<TRIPOS>ATOM
      1 C10          0.0000     0.0000     0.0000 ca         1 6ET      -0.117300
      2 C17         -2.2940     3.7870     1.7060 c3         1 6ET       0.118000
      3 C20         -3.3300     6.4550     0.0750 ca         1 6ET      -0.111000
      4 C21         -3.8390     7.7340     0.1920 ca         1 6ET      -0.118000
      5 C22         -4.9340     7.9710     1.0030 ca         1 6ET       0.031400
      6 C24         -5.5200     6.9270     1.6960 ca         1 6ET      -0.118000
      7 O01          2.0300     0.1860    -3.5910 oh         1 6ET      -0.503100
      8 C02          1.3550     0.1380    -2.4110 ca         1 6ET       0.101100
      9 C03          2.0490     0.0500    -1.2210 ca         1 6ET      -0.160000
     10 C04          1.3760     0.0000     0.0000 ca         1 6ET      -0.041300
     11 C05          2.2510     0.0000     1.2310 c3         1 6ET      -0.036100
     12 C06          1.6120    -0.7290     2.4090 c3         1 6ET      -0.104400
     13 C07          0.7340     0.2630     3.1930 c3         1 6ET       0.102000
     14 N08         -0.3020     0.7540     2.3010 n          1 6ET      -0.427800
     15 C09         -0.7900    -0.1640     1.2670 c3         1 6ET       0.135300
     16 C11         -0.7040     0.1070    -1.1920 ca         1 6ET      -0.142000
     17 C12         -0.0360     0.1760    -2.4000 ca         1 6ET       0.088100
     18 O13         -0.7300     0.2820    -3.5650 oh         1 6ET      -0.503100
     19 C14         -0.7960     2.0030     2.4190 cs         1 6ET       0.615400
     20 S15         -0.2010     3.0460     3.6390 s          1 6ET      -0.714400
     21 N16         -1.7570     2.4290     1.5770 ns         1 6ET      -0.521900
     22 C18         -3.3650     4.0160     0.6360 c3         1 6ET      -0.057100
     23 C19         -3.9160     5.4110     0.7690 ca         1 6ET      -0.084300
     24 C25         -5.0110     5.6480     1.5790 ca         1 6ET      -0.111000
     25 H172        -1.4930     4.5050     1.5750 h1         1 6ET       0.078700
     26 H171        -2.7320     3.9100     2.6880 h1         1 6ET       0.078700
     27 H201        -2.4730     6.2690    -0.5600 ha         1 6ET       0.139000
     28 H211        -3.3800     8.5510    -0.3510 ha         1 6ET       0.145500
     29 H241        -6.3780     7.1130     2.3310 ha         1 6ET       0.145500
     30 H011         2.3910    -0.6630    -3.7820 ho         1 6ET       0.418000
     31 H031         3.1310     0.0200    -1.2360 ha         1 6ET       0.146000
     32 H051         2.4440     1.0260     1.5200 hc         1 6ET       0.064200
     33 H052         3.1900    -0.4840     0.9900 hc         1 6ET       0.064200
     34 H062         0.9990    -1.5430     2.0420 hc         1 6ET       0.054700
     35 H061         2.3880    -1.1160     3.0580 hc         1 6ET       0.054700
     36 H071         1.3400     1.0910     3.5390 h1         1 6ET       0.080700
     37 H072         0.2790    -0.2420     4.0370 h1         1 6ET       0.080700
     38 H091        -0.6660    -1.1800     1.6220 h1         1 6ET       0.063700
     39 H092        -1.8270     0.0690     1.0600 h1         1 6ET       0.063700
     40 H111        -1.7870     0.1360    -1.1750 ha         1 6ET       0.137000
     41 H131        -0.9850    -0.5770    -3.8590 ho         1 6ET       0.417000
     42 H161        -2.1390     1.8030     0.8950 hn         1 6ET       0.311500
     43 H181        -2.9260     3.8920    -0.3470 hc         1 6ET       0.052700
     44 H182        -4.1650     3.2970     0.7670 hc         1 6ET       0.052700
     45 H251        -5.4700     4.8300     2.1220 ha         1 6ET       0.139000
     46 Cl2         -5.5740     9.5790     1.1500 cl         1 6ET      -0.108400
@<TRIPOS>BOND
     1    46     5 1
     2     5     4 ar
     3     5     6 ar
     4     4     3 ar
     5     6    24 ar
     6     3    23 ar
     7    24    23 ar
     8    23    22 1
     9    22     2 1
    10     2    21 1
    11    20    19 2
    12    21    19 1
    13    19    14 1
    14    14    15 1
    15    14    13 1
    16    15     1 1
    17    13    12 1
    18     1    16 ar
    19     1    10 ar
    20    12    11 1
    21    11    10 1
    22    16    17 ar
    23    10     9 ar
    24    17    18 1
    25    17     8 ar
    26     9     8 ar
    27     8     7 1
    28     2    25 1
    29     2    26 1
    30     3    27 1
    31     4    28 1
    32     6    29 1
    33     7    30 1
    34     9    31 1
    35    11    32 1
    36    11    33 1
    37    12    34 1
    38    12    35 1
    39    13    36 1
    40    13    37 1
    41    15    38 1
    42    15    39 1
    43    16    40 1
    44    18    41 1
    45    21    42 1
    46    22    43 1
    47    22    44 1
    48    24    45 1
@<TRIPOS>SUBSTRUCTURE
     1 6ET         1 TEMP              0 ****  ****    0 ROOT
