@<TRIPOS>MOLECULE
6ET
   46    48     1     0     0
SMALL
bcc


@<TRIPOS>ATOM
      1 C10          0.0000     0.0000     0.0000 ca         1 6ET      -0.127300
      2 C17         -2.2940     3.7870     1.7060 c3         1 6ET       0.022000
      3 C20         -3.3300     6.4550     0.0750 ca         1 6ET      -0.082000
      4 C21         -3.8390     7.7340     0.1920 ca         1 6ET      -0.094500
      5 C22         -4.9340     7.9710     1.0030 ca         1 6ET      -0.031600
      6 C24         -5.5200     6.9270     1.6960 ca         1 6ET      -0.094500
      7 O01          2.0300     0.1860    -3.5910 oh         1 6ET      -0.480100
      8 C02          1.3550     0.1380    -2.4110 ca         1 6ET       0.112100
      9 C03          2.0490     0.0500    -1.2210 ca         1 6ET      -0.141000
     10 C04          1.3760     0.0000     0.0000 ca         1 6ET      -0.047300
     11 C05          2.2510     0.0000     1.2310 c3         1 6ET       0.025900
     12 C06          1.6120    -0.7290     2.4090 c3         1 6ET      -0.051400
     13 C07          0.7340     0.2630     3.1930 c3         1 6ET       0.014000
     14 N08         -0.3020     0.7540     2.3010 n          1 6ET      -0.028800
     15 C09         -0.7900    -0.1640     1.2670 c3         1 6ET       0.070300
     16 C11         -0.7040     0.1070    -1.1920 ca         1 6ET      -0.121000
     17 C12         -0.0360     0.1760    -2.4000 ca         1 6ET       0.097100
     18 O13         -0.7300     0.2820    -3.5650 oh         1 6ET      -0.480100
     19 C14         -0.7960     2.0030     2.4190 cs         1 6ET       0.297400
     20 S15         -0.2010     3.0460     3.6390 s          1 6ET      -0.732400
     21 N16         -1.7570     2.4290     1.5770 ns         1 6ET      -0.074900
     22 C18         -3.3650     4.0160     0.6360 c3         1 6ET       0.017900
     23 C19         -3.9160     5.4110     0.7690 ca         1 6ET      -0.091300
     24 C25         -5.0110     5.6480     1.5790 ca         1 6ET      -0.082000
     25 H172        -1.4930     4.5050     1.5750 h1         1 6ET       0.057200
     26 H171        -2.7320     3.9100     2.6880 h1         1 6ET       0.057200
     27 H201        -2.4730     6.2690    -0.5600 ha         1 6ET       0.109500
     28 H211        -3.3800     8.5510    -0.3510 ha         1 6ET       0.115500
     29 H241        -6.3780     7.1130     2.3310 ha         1 6ET       0.115500
     30 H011         2.3910    -0.6630    -3.7820 ho         1 6ET       0.399000
     31 H031         3.1310     0.0200    -1.2360 ha         1 6ET       0.121000
     32 H051         2.4440     1.0260     1.5200 hc         1 6ET       0.033700
     33 H052         3.1900    -0.4840     0.9900 hc         1 6ET       0.033700
     34 H062         0.9990    -1.5430     2.0420 hc         1 6ET       0.029200
     35 H061         2.3880    -1.1160     3.0580 hc         1 6ET       0.029200
     36 H071         1.3400     1.0910     3.5390 h1         1 6ET       0.059700
     37 H072         0.2790    -0.2420     4.0370 h1         1 6ET       0.059700
     38 H091        -0.6660    -1.1800     1.6220 h1         1 6ET       0.039700
     39 H092        -1.8270     0.0690     1.0600 h1         1 6ET       0.039700
     40 H111        -1.7870     0.1360    -1.1750 ha         1 6ET       0.113000
     41 H131        -0.9850    -0.5770    -3.8590 ho         1 6ET       0.399000
     42 H161        -2.1390     1.8030     0.8950 hn         1 6ET       0.168500
     43 H181        -2.9260     3.8920    -0.3470 hc         1 6ET       0.019700
     44 H182        -4.1650     3.2970     0.7670 hc         1 6ET       0.019700
     45 H251        -5.4700     4.8300     2.1220 ha         1 6ET       0.109500
     46 Cl2         -5.5740     9.5790     1.1500 cl         1 6ET      -0.026400
@<TRIPOS>BOND
     1     1    10 ar  
     2     1    15 1   
     3     1    16 ar  
     4     2    21 1   
     5     2    22 1   
     6     2    25 1   
     7     2    26 1   
     8     3     4 ar  
     9     3    23 ar  
    10     3    27 1   
    11     4     5 ar  
    12     4    28 1   
    13     5     6 ar  
    14     5    46 1   
    15     6    24 ar  
    16     6    29 1   
    17     7     8 1   
    18     7    30 1   
    19     8     9 ar  
    20     8    17 ar  
    21     9    10 ar  
    22     9    31 1   
    23    10    11 1   
    24    11    12 1   
    25    11    32 1   
    26    11    33 1   
    27    12    13 1   
    28    12    34 1   
    29    12    35 1   
    30    13    14 1   
    31    13    36 1   
    32    13    37 1   
    33    14    15 1   
    34    14    19 1   
    35    15    38 1   
    36    15    39 1   
    37    16    17 ar  
    38    16    40 1   
    39    17    18 1   
    40    18    41 1   
    41    19    20 2   
    42    19    21 1   
    43    21    42 1   
    44    22    23 1   
    45    22    43 1   
    46    22    44 1   
    47    23    24 ar  
    48    24    45 1   
@<TRIPOS>SUBSTRUCTURE
     1 6ET         1 TEMP              0 ****  ****    0 ROOT
