@<TRIPOS>MOLECULE
molecule
   21    22     1     0     0
SMALL
bcc


@<TRIPOS>ATOM
      1 C10          0.0000     0.0000     0.0000 c2         1 6EV      -0.119000
      2 C01          6.6560     0.0100     3.0740 c3         1 6EV      -0.070000
      3 C03          4.8710     0.0000     1.0010 cc         1 6EV       0.121800
      4 S04          6.3090     0.0000     0.0000 ss         1 6EV      -0.117800
      5 C05          5.3660    -0.0000    -1.4740 cc         1 6EV      -0.092100
      6 C06          4.0350    -0.0010    -1.2170 cd         1 6EV      -0.038800
      7 C07          2.9260    -0.0010    -2.1960 cd         1 6EV      -0.095200
      8 C08          1.6470    -0.0000    -1.8070 cc         1 6EV      -0.110000
      9 C09          1.2960    -0.0010    -0.3800 cc         1 6EV      -0.174200
     10 C21          2.3680    -0.0000     0.6340 c          1 6EV       0.604900
     11 O22          2.0910    -0.0010     1.8210 o          1 6EV      -0.537100
     12 C23          3.7310    -0.0070     0.2120 cd         1 6EV      -0.196600
     13 H1          -0.2560     0.0000     1.0530 ha         1 6EV       0.130000
     14 H2          -0.7840     0.0010    -0.7480 ha         1 6EV       0.130000
     15 H4           7.1050    -0.8730     2.6350 h1         1 6EV       0.070367
     16 H5           6.8320     0.0110     4.1430 h1         1 6EV       0.070367
     17 H6           7.0980     0.8960     2.6350 h1         1 6EV       0.070367
     18 H7           5.7930    -0.0010    -2.4690 h4         1 6EV       0.173000
     19 H8           3.1560    -0.0010    -3.2540 ha         1 6EV       0.132000
     20 H9           0.8610     0.0000    -2.5520 ha         1 6EV       0.134000
     21 S02          4.8740     0.0000     2.7620 ss         1 6EV      -0.088000
@<TRIPOS>BOND
     1     2    21 1   
     2    11    10 2   
     3    21     3 1   
     4     1     9 2   
     5    10     9 1   
     6    10    12 1   
     7     9     8 1   
     8     3    12 2   
     9     3     4 1   
    10    12     6 1   
    11     8     7 2   
    12     4     5 1   
    13     6     7 1   
    14     6     5 2   
    15     1    13 1   
    16     1    14 1   
    17     2    15 1   
    18     2    16 1   
    19     2    17 1   
    20     5    18 1   
    21     7    19 1   
    22     8    20 1   
@<TRIPOS>SUBSTRUCTURE
     1 6EV         1 TEMP              0 ****  ****    0 ROOT
