@<TRIPOS>MOLECULE
molecule
   60    62     1     0     0
SMALL
bcc


@<TRIPOS>ATOM
      1 O1           0.0000     0.0000     0.0000 o          1 6EW      -0.624800
      2 S            1.4210     0.0000     0.0000 sy         1 6EW       1.424200
      3 O4           2.1980     0.0000     1.1900 o          1 6EW      -0.624800
      4 C16          1.9190    -1.4170    -0.9200 ca         1 6EW      -0.321500
      5 C23          1.0640    -1.9700    -1.8550 ca         1 6EW      -0.030000
      6 C21          1.4550    -3.0820    -2.5760 ca         1 6EW      -0.105300
      7 C22          0.5230    -3.6860    -3.5950 c3         1 6EW      -0.046800
      8 C19          2.7010    -3.6420    -2.3620 ca         1 6EW      -0.022300
      9 C20          3.1280    -4.8550    -3.1490 c3         1 6EW      -0.055800
     10 C18          3.5570    -3.0890    -1.4280 ca         1 6EW      -0.144000
     11 C17          3.1670    -1.9730    -0.7100 ca         1 6EW      -0.018000
     12 N1           1.8890     1.3340    -0.8640 nh         1 6EW      -0.675900
     13 C1           3.1840     1.9640    -0.5940 c3         1 6EW       0.183800
     14 C2           4.1490     1.6540    -1.7410 c3         1 6EW       0.590900
     15 F3           3.6840     2.2550    -2.9160 f          1 6EW      -0.221967
     16 F2           5.4180     2.1560    -1.4300 f          1 6EW      -0.221967
     17 F1           4.2280     0.2690    -1.9240 f          1 6EW      -0.221967
     18 C3           1.0470     1.8590    -1.8500 ca         1 6EW       0.132600
     19 C15          0.5440     3.1460    -1.7170 ca         1 6EW      -0.111000
     20 C14         -0.2880     3.6680    -2.6910 ca         1 6EW      -0.131000
     21 C4           0.7210     1.0940    -2.9630 ca         1 6EW      -0.143000
     22 C5          -0.1110     1.6140    -3.9370 ca         1 6EW       0.114100
     23 C11         -0.6180     2.9070    -3.8000 ca         1 6EW       0.042600
     24 N2          -1.4550     3.4270    -4.7990 n          1 6EW      -0.387000
     25 C12         -1.2020     4.7570    -5.3590 c3         1 6EW       0.110000
     26 C13         -0.2700     4.6330    -6.5660 c3         1 6EW      -0.112100
     27 O2          -0.4450     0.8720    -5.0260 os         1 6EW      -0.338900
     28 C6          -1.7570     0.3180    -5.0590 c3         1 6EW       0.158400
     29 C7          -2.7860     1.3530    -4.6070 c3         1 6EW      -0.180000
     30 C8          -2.7270     1.4950    -3.0850 c3         1 6EW      -0.084600
     31 C9          -4.1850     0.8910    -5.0200 c3         1 6EW      -0.084600
     32 C10         -2.4970     2.6870    -5.2410 c          1 6EW       0.719500
     33 O3          -3.1910     3.0940    -6.1490 o          1 6EW      -0.623500
     34 H1           0.0640    -1.5730    -1.9750 ha         1 6EW       0.151000
     35 H2          -0.4670    -3.2640    -3.4720 hc         1 6EW       0.046033
     36 H3           0.8870    -3.4670    -4.5920 hc         1 6EW       0.046033
     37 H4           0.4790    -4.7590    -3.4540 hc         1 6EW       0.046033
     38 H5           3.0580    -4.6410    -4.2090 hc         1 6EW       0.050367
     39 H6           2.4810    -5.6900    -2.9060 hc         1 6EW       0.050367
     40 H7           4.1520    -5.1070    -2.8990 hc         1 6EW       0.050367
     41 H8           4.5340    -3.5260    -1.2620 ha         1 6EW       0.140000
     42 H9           3.8370    -1.5390     0.0230 ha         1 6EW       0.148000
     43 H10          3.0540     3.0360    -0.5110 h1         1 6EW       0.101200
     44 H11          3.5890     1.5760     0.3330 h1         1 6EW       0.101200
     45 H12          0.7870     3.7340    -0.8410 ha         1 6EW       0.142000
     46 H13         -0.6800     4.6730    -2.5870 ha         1 6EW       0.146000
     47 H14          1.1880     0.1270    -3.1100 ha         1 6EW       0.159000
     48 H15         -0.7380     5.3830    -4.6070 h1         1 6EW       0.058700
     49 H16         -2.1400     5.2020    -5.6710 h1         1 6EW       0.058700
     50 H17          0.7310     4.3960    -6.2250 hc         1 6EW       0.045700
     51 H18         -0.2540     5.5710    -7.1080 hc         1 6EW       0.045700
     52 H19         -0.6260     3.8450    -7.2180 hc         1 6EW       0.045700
     53 H20         -1.9860     0.0060    -6.0700 h1         1 6EW       0.061200
     54 H21         -1.7990    -0.5380    -4.3960 h1         1 6EW       0.061200
     55 H22         -1.7930     1.0860    -2.7200 hc         1 6EW       0.049367
     56 H23         -2.7920     2.5420    -2.8170 hc         1 6EW       0.049367
     57 H24         -3.5550     0.9560    -2.6390 hc         1 6EW       0.049367
     58 H25         -4.2330     0.8040    -6.0990 hc         1 6EW       0.049367
     59 H26         -4.3950    -0.0720    -4.5710 hc         1 6EW       0.049367
     60 H27         -4.9180     1.6140    -4.6830 hc         1 6EW       0.049367
@<TRIPOS>BOND
     1     3     2 2   
     2     1     2 2   
     3     2     4 1   
     4     2    12 1   
     5     4    11 ar  
     6     4     5 ar  
     7    13    12 1   
     8    13    14 1   
     9    11    10 ar  
    10    12    18 1   
    11    17    14 1   
    12     5     6 ar  
    13    10     8 ar  
    14    14    15 1   
    15    14    16 1   
    16     6     8 ar  
    17     6     7 1   
    18    18    19 ar  
    19    18    21 ar  
    20    19    20 ar  
    21     8     9 1   
    22    20    23 ar  
    23    21    22 ar  
    24    22    23 ar  
    25    22    27 1   
    26    23    24 1   
    27    25    24 1   
    28    25    26 1   
    29    27    28 1   
    30    24    32 1   
    31    28    29 1   
    32    32    29 1   
    33    32    33 2   
    34    31    29 1   
    35    29    30 1   
    36     5    34 1   
    37     7    35 1   
    38     7    36 1   
    39     7    37 1   
    40     9    38 1   
    41     9    39 1   
    42     9    40 1   
    43    10    41 1   
    44    11    42 1   
    45    13    43 1   
    46    13    44 1   
    47    19    45 1   
    48    20    46 1   
    49    21    47 1   
    50    25    48 1   
    51    25    49 1   
    52    26    50 1   
    53    26    51 1   
    54    26    52 1   
    55    28    53 1   
    56    28    54 1   
    57    30    55 1   
    58    30    56 1   
    59    30    57 1   
    60    31    58 1   
    61    31    59 1   
    62    31    60 1   
@<TRIPOS>SUBSTRUCTURE
     1 6EW         1 TEMP              0 ****  ****    0 ROOT
