@<TRIPOS>MOLECULE
6EW
   60    62     1     0     0
SMALL
bcc


@<TRIPOS>ATOM
      1 O1           0.0000     0.0000     0.0000 o          1 6EW      -0.575300
      2 S            1.4210     0.0000     0.0000 sy         1 6EW       1.050200
      3 O4           2.1980     0.0000     1.1900 o          1 6EW      -0.575300
      4 C16          1.9190    -1.4170    -0.9200 ca         1 6EW      -0.168500
      5 C23          1.0640    -1.9700    -1.8550 ca         1 6EW      -0.001000
      6 C21          1.4550    -3.0820    -2.5760 ca         1 6EW      -0.118300
      7 C22          0.5230    -3.6860    -3.5950 c3         1 6EW       0.063200
      8 C19          2.7010    -3.6420    -2.3620 ca         1 6EW      -0.029300
      9 C20          3.1280    -4.8550    -3.1490 c3         1 6EW       0.052200
     10 C18          3.5570    -3.0890    -1.4280 ca         1 6EW      -0.123000
     11 C17          3.1670    -1.9730    -0.7100 ca         1 6EW       0.010000
     12 N1           1.8890     1.3340    -0.8640 nh         1 6EW      -0.361900
     13 C1           3.1840     1.9640    -0.5940 c3         1 6EW       0.155800
     14 C2           4.1490     1.6540    -1.7410 c3         1 6EW       0.545900
     15 F3           3.6840     2.2550    -2.9160 f          1 6EW      -0.206300
     16 F2           5.4180     2.1560    -1.4300 f          1 6EW      -0.206300
     17 F1           4.2280     0.2690    -1.9240 f          1 6EW      -0.206300
     18 C3           1.0470     1.8590    -1.8500 ca         1 6EW       0.075600
     19 C15          0.5440     3.1460    -1.7170 ca         1 6EW      -0.094000
     20 C14         -0.2880     3.6680    -2.6910 ca         1 6EW      -0.093000
     21 C4           0.7210     1.0940    -2.9630 ca         1 6EW      -0.135000
     22 C5          -0.1110     1.6140    -3.9370 ca         1 6EW       0.134100
     23 C11         -0.6180     2.9070    -3.8000 ca         1 6EW      -0.100400
     24 N2          -1.4550     3.4270    -4.7990 n          1 6EW      -0.004000
     25 C12         -1.2020     4.7570    -5.3590 c3         1 6EW       0.041000
     26 C13         -0.2700     4.6330    -6.5660 c3         1 6EW      -0.015100
     27 O2          -0.4450     0.8720    -5.0260 os         1 6EW      -0.327900
     28 C6          -1.7570     0.3180    -5.0590 c3         1 6EW       0.231400
     29 C7          -2.7860     1.3530    -4.6070 c3         1 6EW      -0.184000
     30 C8          -2.7270     1.4950    -3.0850 c3         1 6EW      -0.004600
     31 C9          -4.1850     0.8910    -5.0200 c3         1 6EW      -0.004600
     32 C10         -2.4970     2.6870    -5.2410 c          1 6EW       0.636500
     33 O3          -3.1910     3.0940    -6.1490 o          1 6EW      -0.665500
     34 H1           0.0640    -1.5730    -1.9750 ha         1 6EW       0.129000
     35 H2          -0.4670    -3.2640    -3.4720 hc         1 6EW       0.011367
     36 H3           0.8870    -3.4670    -4.5920 hc         1 6EW       0.011367
     37 H4           0.4790    -4.7590    -3.4540 hc         1 6EW       0.011367
     38 H5           3.0580    -4.6410    -4.2090 hc         1 6EW       0.014033
     39 H6           2.4810    -5.6900    -2.9060 hc         1 6EW       0.014033
     40 H7           4.1520    -5.1070    -2.8990 hc         1 6EW       0.014033
     41 H8           4.5340    -3.5260    -1.2620 ha         1 6EW       0.115000
     42 H9           3.8370    -1.5390     0.0230 ha         1 6EW       0.122000
     43 H10          3.0540     3.0360    -0.5110 h1         1 6EW       0.068700
     44 H11          3.5890     1.5760     0.3330 h1         1 6EW       0.068700
     45 H12          0.7870     3.7340    -0.8410 ha         1 6EW       0.113000
     46 H13         -0.6800     4.6730    -2.5870 ha         1 6EW       0.117000
     47 H14          1.1880     0.1270    -3.1100 ha         1 6EW       0.134000
     48 H15         -0.7380     5.3830    -4.6070 h1         1 6EW       0.032200
     49 H16         -2.1400     5.2020    -5.6710 h1         1 6EW       0.032200
     50 H17          0.7310     4.3960    -6.2250 hc         1 6EW       0.012367
     51 H18         -0.2540     5.5710    -7.1080 hc         1 6EW       0.012367
     52 H19         -0.6260     3.8450    -7.2180 hc         1 6EW       0.012367
     53 H20         -1.9860     0.0060    -6.0700 h1         1 6EW       0.020700
     54 H21         -1.7990    -0.5380    -4.3960 h1         1 6EW       0.020700
     55 H22         -1.7930     1.0860    -2.7200 hc         1 6EW       0.019533
     56 H23         -2.7920     2.5420    -2.8170 hc         1 6EW       0.019533
     57 H24         -3.5550     0.9560    -2.6390 hc         1 6EW       0.019533
     58 H25         -4.2330     0.8040    -6.0990 hc         1 6EW       0.019533
     59 H26         -4.3950    -0.0720    -4.5710 hc         1 6EW       0.019533
     60 H27         -4.9180     1.6140    -4.6830 hc         1 6EW       0.019533
@<TRIPOS>BOND
     1     1     2 2   
     2     2     3 2   
     3     2     4 1   
     4     2    12 1   
     5     4     5 ar  
     6     4    11 ar  
     7     5     6 ar  
     8     5    34 1   
     9     6     7 1   
    10     6     8 ar  
    11     7    35 1   
    12     7    36 1   
    13     7    37 1   
    14     8     9 1   
    15     8    10 ar  
    16     9    38 1   
    17     9    39 1   
    18     9    40 1   
    19    10    11 ar  
    20    10    41 1   
    21    11    42 1   
    22    12    13 1   
    23    12    18 1   
    24    13    14 1   
    25    13    43 1   
    26    13    44 1   
    27    14    15 1   
    28    14    16 1   
    29    14    17 1   
    30    18    19 ar  
    31    18    21 ar  
    32    19    20 ar  
    33    19    45 1   
    34    20    23 ar  
    35    20    46 1   
    36    21    22 ar  
    37    21    47 1   
    38    22    23 ar  
    39    22    27 1   
    40    23    24 1   
    41    24    25 1   
    42    24    32 1   
    43    25    26 1   
    44    25    48 1   
    45    25    49 1   
    46    26    50 1   
    47    26    51 1   
    48    26    52 1   
    49    27    28 1   
    50    28    29 1   
    51    28    53 1   
    52    28    54 1   
    53    29    30 1   
    54    29    31 1   
    55    29    32 1   
    56    30    55 1   
    57    30    56 1   
    58    30    57 1   
    59    31    58 1   
    60    31    59 1   
    61    31    60 1   
    62    32    33 2   
@<TRIPOS>SUBSTRUCTURE
     1 6EW         1 TEMP              0 ****  ****    0 ROOT
