@<TRIPOS>MOLECULE
molecule
   14    14     1     0     0
SMALL
bcc


@<TRIPOS>ATOM
      1 CAA          0.0000     0.0000     0.0000 c3         1 6EX      -0.174100
      2 CAG          1.5070     0.0000     0.0000 c          1 6EX       0.561900
      3 OAB          2.1120     0.0000     1.0450 o          1 6EX      -0.535100
      4 NAH          2.1810    -0.0020    -1.1680 n          1 6EX      -0.193000
      5 CAD          3.5470    -0.0080    -1.3260 cc         1 6EX      -0.233600
      6 CAC          3.7850    -0.0070    -2.6490 cd         1 6EX       0.315200
      7 NAF          2.6060     0.0000    -3.2910 nd         1 6EX      -0.676000
      8 CAE          1.6370    -0.0030    -2.4190 cc         1 6EX       0.405400
      9 H1          -0.3610     0.0000     1.0210 hc         1 6EX       0.072367
     10 H2          -0.3610     0.8840    -0.5110 hc         1 6EX       0.072367
     11 H3          -0.3610    -0.8850    -0.5100 hc         1 6EX       0.072367
     12 H4           4.2890    -0.0140    -0.5360 h4         1 6EX       0.194000
     13 H5           4.7620    -0.0090    -3.1180 h4         1 6EX       0.048100
     14 H6           0.5790     0.0020    -2.6500 h5         1 6EX       0.070100
@<TRIPOS>BOND
     1     3     2 2   
     2     2     1 1   
     3     2     4 1   
     4     5     4 1   
     5     5     6 2   
     6     4     8 1   
     7     6     7 1   
     8     8     7 2   
     9     1     9 1   
    10     1    10 1   
    11     1    11 1   
    12     5    12 1   
    13     6    13 1   
    14     8    14 1   
@<TRIPOS>SUBSTRUCTURE
     1 6EX         1 TEMP              0 ****  ****    0 ROOT
