@<TRIPOS>MOLECULE
molecule
   44    47     1     0     0
SMALL
bcc


@<TRIPOS>ATOM
      1 C4           0.0000     0.0000     0.0000 ce         1 6EY      -0.135600
      2 C6          -0.4920    -2.0480    -1.7810 ca         1 6EY       0.036900
      3 C11         -0.9130    -2.6650    -2.9530 ca         1 6EY       0.037400
      4 C7           0.2480    -2.7670    -0.8490 ca         1 6EY      -0.123000
      5 C8           0.5570    -4.0920    -1.0880 ca         1 6EY      -0.112000
      6 C9           0.1320    -4.7030    -2.2530 ca         1 6EY      -0.131000
      7 C10         -0.5950    -3.9900    -3.1870 ca         1 6EY      -0.108000
      8 C13          1.4650     0.0000     0.0000 c          1 6EY       0.713700
      9 C3           0.1000     0.6360     2.3870 c3         1 6EY      -0.078200
     10 C2          -0.6640     0.2810     1.1380 c2         1 6EY       0.159900
     11 S5          -0.8880    -0.3580    -1.4800 ss         1 6EY      -0.119500
     12 Cl          -1.8380    -1.7730    -4.1210 cl         1 6EY      -0.099400
     13 N14          2.1330     0.0000     1.1690 ns         1 6EY      -0.578900
     14 C15          1.4150    -0.1400     2.4360 c3         1 6EY       0.247000
     15 C16          1.1260    -1.5970     2.6870 cd         1 6EY      -0.138300
     16 C17          0.0630    -2.0090     3.3800 cc         1 6EY      -0.059100
     17 S18          0.0580    -3.7650     3.4650 ss         1 6EY      -0.139800
     18 C19          1.5440    -3.8450     2.5270 cc         1 6EY      -0.073100
     19 C20          1.9390    -2.6110     2.2100 cd         1 6EY      -0.144000
     20 C21          2.2690     0.3960     3.5540 ca         1 6EY      -0.067300
     21 C22          1.6730     0.9350     4.6810 ca         1 6EY      -0.141000
     22 C23          2.4550     1.4270     5.7100 ca         1 6EY      -0.098000
     23 C24          3.8330     1.3820     5.6150 ca         1 6EY      -0.179000
     24 C25          4.4320     0.8420     4.4870 ca         1 6EY       0.127100
     25 O26          5.7870     0.7960     4.3920 oh         1 6EY      -0.511100
     26 C27          3.6460     0.3430     3.4590 ca         1 6EY      -0.139000
     27 O28          2.0760    -0.0000    -1.0530 o          1 6EY      -0.611500
     28 H1           0.5800    -2.2900     0.0650 ha         1 6EY       0.146000
     29 H2           1.1300    -4.6530    -0.3600 ha         1 6EY       0.130000
     30 H3           0.3780    -5.7420    -2.4380 ha         1 6EY       0.133000
     31 H4          -0.9250    -4.4720    -4.1000 ha         1 6EY       0.144000
     32 H5          -0.4970     0.3830     3.2550 hc         1 6EY       0.079200
     33 H6           0.3120     1.6980     2.3870 hc         1 6EY       0.079200
     34 H7          -2.3540     1.1100     0.9900 ho         1 6EY       0.436000
     35 H8           3.1290     0.0970     1.1710 hn         1 6EY       0.339500
     36 H9          -0.6830    -1.3600     3.8230 h4         1 6EY       0.173000
     37 H10          2.0550    -4.7570     2.2430 h4         1 6EY       0.174000
     38 H11          2.8340    -2.4160     1.6320 ha         1 6EY       0.156000
     39 H12          0.5930     0.9710     4.7560 ha         1 6EY       0.133000
     40 H13          1.9860     1.8490     6.5910 ha         1 6EY       0.137000
     41 H14          4.4440     1.7680     6.4220 ha         1 6EY       0.140000
     42 H15          6.1400     0.3420     5.1390 ho         1 6EY       0.424000
     43 H16          4.1120    -0.0790     2.5760 ha         1 6EY       0.145000
     44 O1          -2.0150     0.2470     1.1580 oh         1 6EY      -0.505100
@<TRIPOS>BOND
     1     7     6 ar
     2     7     3 ar
     3     6     5 ar
     4    12     3 1
     5     3     2 ar
     6    44    10 1
     7     5     4 ar
     8     2     4 ar
     9     2    11 1
    10    11     1 1
    11    10     1 2
    12    10     9 1
    13    17    16 1
    14    17    18 1
    15    16    15 2
    16     1     8 1
    17     9    14 1
    18    15    14 1
    19    15    19 1
    20    18    19 2
    21    14    13 1
    22    14    20 1
    23     8    27 2
    24     8    13 1
    25    20    21 ar
    26    20    26 ar
    27    21    22 ar
    28    26    24 ar
    29    22    23 ar
    30    24    23 ar
    31    24    25 1
    32     4    28 1
    33     5    29 1
    34     6    30 1
    35     7    31 1
    36     9    32 1
    37     9    33 1
    38    44    34 1
    39    13    35 1
    40    16    36 1
    41    18    37 1
    42    19    38 1
    43    21    39 1
    44    22    40 1
    45    23    41 1
    46    25    42 1
    47    26    43 1
@<TRIPOS>SUBSTRUCTURE
     1 6EY         1 TEMP              0 ****  ****    0 ROOT
