@<TRIPOS>MOLECULE
6EZ
   46    49     1     0     0
SMALL
bcc


@<TRIPOS>ATOM
      1 C2           0.0000     0.0000     0.0000 ca         1 6EZ       0.099900
      2 C3           1.3850     0.0000     0.0000 ca         1 6EZ      -0.130500
      3 C4           2.0780     0.0000     1.1930 ca         1 6EZ      -0.074500
      4 C5           1.3810     0.0000     2.4000 cp         1 6EZ      -0.038000
      5 C6          -0.0120     0.0010     2.3960 ca         1 6EZ      -0.074500
      6 C7          -0.6960     0.0060     1.1980 ca         1 6EZ      -0.130500
      7 C9           3.5150    -0.0050     3.6880 ca         1 6EZ      -0.090000
      8 C10          4.2040    -0.0050     4.8890 ca         1 6EZ      -0.113400
      9 C12          6.2830    -0.6700     3.9380 c          1 6EZ       0.564100
     10 O13          5.6830    -1.2010     3.0280 o          1 6EZ      -0.634100
     11 C15          8.3030    -1.5610     2.8040 c3         1 6EZ      -0.045400
     12 C16          9.8370    -1.4850     2.7830 c3         1 6EZ       0.179600
     13 C17         10.3520    -1.8220     4.2010 c3         1 6EZ      -0.061900
     14 C18         10.4000    -0.4520     4.9150 c3         1 6EZ      -0.061900
     15 C19          9.9080     0.5450     3.8390 c3         1 6EZ       0.179600
     16 C20          8.3810     0.6550     3.9580 c3         1 6EZ      -0.045400
     17 C22          3.5000    -0.0040     6.0940 ca         1 6EZ       0.003600
     18 C24          2.1120    -0.0040     6.0890 ca         1 6EZ      -0.110000
     19 F1          -0.6750    -0.0010    -1.1710 f          1 6EZ      -0.130900
     20 C8           2.1220    -0.0050     3.6860 cp         1 6EZ      -0.030000
     21 C14          7.7860    -0.7560     4.0010 c3         1 6EZ      -0.132700
     22 O21         10.2020    -0.1020     2.5820 os         1 6EZ      -0.389600
     23 N23          4.1930    -0.0050     7.3090 nv         1 6EZ      -0.534200
     24 C25          1.4240    -0.0050     4.8920 ca         1 6EZ      -0.097000
     25 H1           1.9260    -0.0020    -0.9390 ha         1 6EZ       0.118000
     26 H2           3.1610    -0.0000     1.1920 ha         1 6EZ       0.119000
     27 H3          -0.5580     0.0030     3.3320 ha         1 6EZ       0.119000
     28 H4          -1.7790     0.0060     1.1940 ha         1 6EZ       0.118000
     29 H5           4.0600    -0.0050     2.7510 ha         1 6EZ       0.154000
     30 H7           7.9060    -1.1440     1.8870 hc         1 6EZ       0.032450
     31 H8          10.2680    -2.1330     2.0290 h1         1 6EZ       0.044700
     32 H9           9.6650    -2.4890     4.7060 hc         1 6EZ       0.024200
     33 H10         11.3420    -2.2590     4.1520 hc         1 6EZ       0.024200
     34 H11         11.4140    -0.2160     5.2160 hc         1 6EZ       0.024200
     35 H12          9.7360    -0.4460     5.7710 hc         1 6EZ       0.024200
     36 H13         10.3960     1.5080     3.9250 h1         1 6EZ       0.044700
     37 H14          8.1250     1.1860     4.8670 hc         1 6EZ       0.032450
     38 H15          7.9870     1.1900     3.1020 hc         1 6EZ       0.032450
     39 H16          1.5680    -0.0040     7.0260 ha         1 6EZ       0.109000
     40 H18          8.0820    -1.2460     4.9210 hc         1 6EZ       0.050700
     41 H19          4.1110     0.7740     7.9320 hn         1 6EZ       0.270800
     42 H20          4.7510    -0.7950     7.5660 hn         1 6EZ       0.270800
     43 H21          0.3400    -0.0050     4.8900 ha         1 6EZ       0.111000
     44 N11          5.6050    -0.0060     4.8950 ns         1 6EZ      -0.030100
     45 H6           7.9920    -2.5940     2.8990 hc         1 6EZ       0.032450
     46 H17          6.1020     0.5100     5.5930 hn         1 6EZ       0.170500
@<TRIPOS>BOND
     1     1     2 ar  
     2     1     6 ar  
     3     1    19 1   
     4     2     3 ar  
     5     2    25 1   
     6     3     4 ar  
     7     3    26 1   
     8     4     5 ar  
     9     4    20 1   
    10     5     6 ar  
    11     5    27 1   
    12     6    28 1   
    13     7     8 ar  
    14     7    20 ar  
    15     7    29 1   
    16     8    17 ar  
    17     8    44 1   
    18     9    10 2   
    19     9    21 1   
    20     9    44 1   
    21    11    12 1   
    22    11    21 1   
    23    11    30 1   
    24    11    45 1   
    25    12    13 1   
    26    12    22 1   
    27    12    31 1   
    28    13    14 1   
    29    13    32 1   
    30    13    33 1   
    31    14    15 1   
    32    14    34 1   
    33    14    35 1   
    34    15    16 1   
    35    15    22 1   
    36    15    36 1   
    37    16    21 1   
    38    16    37 1   
    39    16    38 1   
    40    17    18 ar  
    41    17    23 1   
    42    18    24 ar  
    43    18    39 1   
    44    20    24 ar  
    45    21    40 1   
    46    23    41 1   
    47    23    42 1   
    48    24    43 1   
    49    44    46 1   
@<TRIPOS>SUBSTRUCTURE
     1 6EZ         1 TEMP              0 ****  ****    0 ROOT
