@<TRIPOS>MOLECULE
molecule
   46    49     1     0     0
SMALL
bcc


@<TRIPOS>ATOM
      1 C2           0.0000     0.0000     0.0000 ca         1 6EZ       0.129900
      2 C3           1.3850     0.0000     0.0000 ca         1 6EZ      -0.166000
      3 C4           2.0780     0.0000     1.1930 ca         1 6EZ      -0.095000
      4 C5           1.3810     0.0000     2.4000 cp         1 6EZ      -0.045000
      5 C6          -0.0120     0.0010     2.3960 ca         1 6EZ      -0.095000
      6 C7          -0.6960     0.0060     1.1980 ca         1 6EZ      -0.166000
      7 C9           3.5150    -0.0050     3.6880 ca         1 6EZ      -0.108000
      8 C10          4.2040    -0.0050     4.8890 ca         1 6EZ       0.027600
      9 C12          6.2830    -0.6700     3.9380 c          1 6EZ       0.660100
     10 O13          5.6830    -1.2010     3.0280 o          1 6EZ      -0.596100
     11 C15          8.3030    -1.5610     2.8040 c3         1 6EZ      -0.094400
     12 C16          9.8370    -1.4850     2.7830 c3         1 6EZ       0.131600
     13 C17         10.3520    -1.8220     4.2010 c3         1 6EZ      -0.113400
     14 C18         10.4000    -0.4520     4.9150 c3         1 6EZ      -0.113400
     15 C19          9.9080     0.5450     3.8390 c3         1 6EZ       0.131600
     16 C20          8.3810     0.6550     3.9580 c3         1 6EZ      -0.094400
     17 C22          3.5000    -0.0040     6.0940 ca         1 6EZ       0.139600
     18 C24          2.1120    -0.0040     6.0890 ca         1 6EZ      -0.140000
     19 F1          -0.6750    -0.0010    -1.1710 f          1 6EZ      -0.142900
     20 C8           2.1220    -0.0050     3.6860 cp         1 6EZ      -0.037000
     21 C14          7.7860    -0.7560     4.0010 c3         1 6EZ      -0.146700
     22 O21         10.2020    -0.1020     2.5820 os         1 6EZ      -0.398600
     23 N23          4.1930    -0.0050     7.3090 nv         1 6EZ      -0.977200
     24 C25          1.4240    -0.0050     4.8920 ca         1 6EZ      -0.123000
     25 H1           1.9260    -0.0020    -0.9390 ha         1 6EZ       0.145000
     26 H2           3.1610    -0.0000     1.1920 ha         1 6EZ       0.143500
     27 H3          -0.5580     0.0030     3.3320 ha         1 6EZ       0.143500
     28 H4          -1.7790     0.0060     1.1940 ha         1 6EZ       0.145000
     29 H5           4.0600    -0.0050     2.7510 ha         1 6EZ       0.169000
     30 H7           7.9060    -1.1440     1.8870 hc         1 6EZ       0.061700
     31 H8          10.2680    -2.1330     2.0290 h1         1 6EZ       0.088200
     32 H9           9.6650    -2.4890     4.7060 hc         1 6EZ       0.052450
     33 H10         11.3420    -2.2590     4.1520 hc         1 6EZ       0.052450
     34 H11         11.4140    -0.2160     5.2160 hc         1 6EZ       0.052450
     35 H12          9.7360    -0.4460     5.7710 hc         1 6EZ       0.052450
     36 H13         10.3960     1.5080     3.9250 h1         1 6EZ       0.088200
     37 H14          8.1250     1.1860     4.8670 hc         1 6EZ       0.061700
     38 H15          7.9870     1.1900     3.1020 hc         1 6EZ       0.061700
     39 H16          1.5680    -0.0040     7.0260 ha         1 6EZ       0.137000
     40 H18          8.0820    -1.2460     4.9210 hc         1 6EZ       0.070700
     41 H19          4.1110     0.7740     7.9320 hn         1 6EZ       0.427300
     42 H20          4.7510    -0.7950     7.5660 hn         1 6EZ       0.427300
     43 H21          0.3400    -0.0050     4.8900 ha         1 6EZ       0.133000
     44 N11          5.6050    -0.0060     4.8950 ns         1 6EZ      -0.472100
     45 H6           7.9920    -2.5940     2.8990 hc         1 6EZ       0.061700
     46 H17          6.1020     0.5100     5.5930 hn         1 6EZ       0.327500
@<TRIPOS>BOND
     1    22    15 1   
     2    22    12 1   
     3    23    17 1   
     4    15    16 1   
     5    15    14 1   
     6    16    21 1   
     7    10     9 2   
     8    12    11 1   
     9    12    13 1   
    10    11    21 1   
    11     9    21 1   
    12     9    44 1   
    13    17    18 ar  
    14    17     8 ar  
    15    14    13 1   
    16    18    24 ar  
    17    44     8 1   
    18     8     7 ar  
    19    24    20 ar  
    20     7    20 ar  
    21    20     4 1   
    22     4     5 ar  
    23     4     3 ar  
    24     5     6 ar  
    25     3     2 ar  
    26     6     1 ar  
    27     2     1 ar  
    28     1    19 1   
    29     2    25 1   
    30     3    26 1   
    31     5    27 1   
    32     6    28 1   
    33     7    29 1   
    34    11    45 1   
    35    11    30 1   
    36    12    31 1   
    37    13    32 1   
    38    13    33 1   
    39    14    34 1   
    40    14    35 1   
    41    15    36 1   
    42    16    37 1   
    43    16    38 1   
    44    18    39 1   
    45    44    46 1   
    46    21    40 1   
    47    23    41 1   
    48    23    42 1   
    49    24    43 1   
@<TRIPOS>SUBSTRUCTURE
     1 6EZ         1 TEMP              0 ****  ****    0 ROOT
