@<TRIPOS>MOLECULE
molecule
   16    16     1     0     0
SMALL
bcc


@<TRIPOS>ATOM
      1 OAB          0.0000     0.0000     0.0000 o          1 6F0      -0.830800
      2 CAH          1.2150     0.0000     0.0000 c          1 6F0       0.896200
      3 OAC          1.8890     0.0000     1.1670 o          1 6F0      -0.830800
      4 CAK          1.9500    -0.0080    -1.2740 ca         1 6F0      -0.114600
      5 CAJ          2.3040     1.1990    -1.8920 ca         1 6F0       0.141900
      6 FAD          1.9700     2.3760    -1.3190 f          1 6F0      -0.141900
      7 CAG          2.9950     1.1820    -3.0870 ca         1 6F0      -0.197000
      8 CAE          3.3400    -0.0210    -3.6800 ca         1 6F0      -0.141000
      9 CAF          2.9980    -1.2190    -3.0830 ca         1 6F0      -0.180000
     10 CAI          2.3080    -1.2250    -1.8780 ca         1 6F0       0.193600
     11 NAA          1.9650    -2.4290    -1.2770 nv         1 6F0      -0.973200
     12 H2           3.2680     2.1150    -3.5640 ha         1 6F0       0.116000
     13 H3           3.8800    -0.0230    -4.6190 ha         1 6F0       0.105000
     14 H4           3.2740    -2.1550    -3.5530 ha         1 6F0       0.112000
     15 H5           2.6010    -2.8700    -0.6420 hn         1 6F0       0.422800
     16 H6           1.0990    -2.8750    -1.5080 hn         1 6F0       0.422800
@<TRIPOS>BOND
     1     8     7 ar  
     2     8     9 ar  
     3     7     5 ar  
     4     6     5 1   
     5     5     4 ar  
     6     9    10 ar  
     7    10     4 ar  
     8    10    11 1   
     9     4     2 1   
    10     2     1 1   
    11     2     3 1   
    12     7    12 1   
    13     8    13 1   
    14     9    14 1   
    15    11    15 1   
    16    11    16 1   
@<TRIPOS>SUBSTRUCTURE
     1 6F0         1 TEMP              0 ****  ****    0 ROOT
