@<TRIPOS>MOLECULE
6F0
   16    16     1     0     0
SMALL
bcc


@<TRIPOS>ATOM
      1 OAB          0.0000     0.0000     0.0000 o          1 6F0      -0.879800
      2 CAH          1.2150     0.0000     0.0000 c          1 6F0       0.983200
      3 OAC          1.8890     0.0000     1.1670 o          1 6F0      -0.879800
      4 CAK          1.9500    -0.0080    -1.2740 ca         1 6F0      -0.097600
      5 CAJ          2.3040     1.1990    -1.8920 ca         1 6F0       0.119900
      6 FAD          1.9700     2.3760    -1.3190 f          1 6F0      -0.132900
      7 CAG          2.9950     1.1820    -3.0870 ca         1 6F0      -0.165000
      8 CAE          3.3400    -0.0210    -3.6800 ca         1 6F0      -0.118000
      9 CAF          2.9980    -1.2190    -3.0830 ca         1 6F0      -0.154000
     10 CAI          2.3080    -1.2250    -1.8780 ca         1 6F0       0.063600
     11 NAA          1.9650    -2.4290    -1.2770 nv         1 6F0      -0.540200
     12 H2           3.2680     2.1150    -3.5640 ha         1 6F0       0.096000
     13 H3           3.8800    -0.0230    -4.6190 ha         1 6F0       0.083000
     14 H4           3.2740    -2.1550    -3.5530 ha         1 6F0       0.090000
     15 H5           2.6010    -2.8700    -0.6420 hn         1 6F0       0.266300
     16 H6           1.0990    -2.8750    -1.5080 hn         1 6F0       0.266300
@<TRIPOS>BOND
     1     1     2 1   
     2     2     3 1   
     3     2     4 1   
     4     4     5 ar  
     5     4    10 ar  
     6     5     6 1   
     7     5     7 ar  
     8     7     8 ar  
     9     7    12 1   
    10     8     9 ar  
    11     8    13 1   
    12     9    10 ar  
    13     9    14 1   
    14    10    11 1   
    15    11    15 1   
    16    11    16 1   
@<TRIPOS>SUBSTRUCTURE
     1 6F0         1 TEMP              0 ****  ****    0 ROOT
