@<TRIPOS>MOLECULE
molecule
   51    53     1     0     0
SMALL
bcc


@<TRIPOS>ATOM
      1 C13          0.0000     0.0000     0.0000 ca         1 6F1      -0.147000
      2 C14          1.3830     0.0000     0.0000 ca         1 6F1      -0.025300
      3 O2          -0.0470     0.6730     4.8630 o          1 6F1      -0.616300
      4 C19          0.0700    -1.5090     6.5810 ca         1 6F1      -0.088000
      5 C15          2.1370     0.0010    -1.3050 c3         1 6F1      -0.055800
      6 C16          2.0730     0.0000     1.1980 ca         1 6F1      -0.105300
      7 C1           1.4950    -2.3800     9.7640 c3         1 6F1       0.074400
      8 C12         -0.6920     0.0050     1.1970 ca         1 6F1      -0.035000
      9 C10         -3.2310    -2.4300     4.9430 c3         1 6F1       0.596900
     10 O1           1.1450    -1.4840     8.7080 os         1 6F1      -0.313900
     11 N1          -1.0070    -1.5570     4.4200 nh         1 6F1      -0.674900
     12 C4           3.7750    -4.5370     7.5640 c3         1 6F1       0.103000
     13 C5           5.0060    -3.7190     7.1650 c3         1 6F1      -0.112100
     14 C3           1.7800    -3.1190     7.1000 ca         1 6F1       0.016600
     15 C2           0.9940    -2.0270     7.4690 ca         1 6F1       0.101100
     16 C8          -0.0750    -2.0800     5.3220 ca         1 6F1       0.116600
     17 C7           0.7060    -3.1700     4.9580 ca         1 6F1      -0.128000
     18 C6           1.6290    -3.6890     5.8470 ca         1 6F1      -0.142000
     19 O3          -2.2030     0.4470     3.6180 o          1 6F1      -0.616300
     20 C11         -0.0010     0.0090     2.3940 ca         1 6F1      -0.321500
     21 C17          3.5800    -0.0000     1.1990 c3         1 6F1      -0.046800
     22 C18          1.3820    -0.0020     2.3950 ca         1 6F1      -0.019000
     23 C9          -2.0950    -2.4020     3.9200 c3         1 6F1       0.194800
     24 N            2.7130    -3.6320     8.0130 n          1 6F1      -0.375000
     25 C            2.6180    -3.2810     9.3150 c          1 6F1       0.670500
     26 O            3.4300    -3.6880    10.1170 o          1 6F1      -0.612500
     27 F1          -3.6250    -1.1210     5.2390 f          1 6F1      -0.218967
     28 F           -4.3180    -3.1350     4.4140 f          1 6F1      -0.218967
     29 F2          -2.7910    -3.0610     6.1120 f          1 6F1      -0.218967
     30 S           -0.8820     0.0170     3.9200 sy         1 6F1       1.417200
     31 H1          -0.5420    -0.0040    -0.9380 ha         1 6F1       0.139000
     32 H2          -0.5900    -0.7090     6.8920 ha         1 6F1       0.170000
     33 H3           2.7250    -0.9060    -1.3830 hc         1 6F1       0.049700
     34 H4           1.4340     0.0470    -2.1280 hc         1 6F1       0.049700
     35 H5           2.7940     0.8620    -1.3420 hc         1 6F1       0.049700
     36 H6           0.6330    -2.9820    10.0250 h1         1 6F1       0.088700
     37 H7           1.8160    -1.8090    10.6270 h1         1 6F1       0.088700
     38 H8          -1.7750     0.0090     1.1970 ha         1 6F1       0.149000
     39 H9           3.4250    -5.1030     6.7090 h1         1 6F1       0.063700
     40 H10          4.0380    -5.2170     8.3640 h1         1 6F1       0.063700
     41 H11          5.1970    -3.8470     6.1060 hc         1 6F1       0.046367
     42 H12          5.8650    -4.0600     7.7300 hc         1 6F1       0.046367
     43 H13          4.8270    -2.6710     7.3750 hc         1 6F1       0.046367
     44 H14          0.5920    -3.6140     3.9770 ha         1 6F1       0.138000
     45 H15          2.2380    -4.5390     5.5620 ha         1 6F1       0.144000
     46 H16          3.9410    -0.0530     2.2190 hc         1 6F1       0.046700
     47 H17          3.9420    -0.8570     0.6430 hc         1 6F1       0.046700
     48 H18          3.9420     0.9100     0.7340 hc         1 6F1       0.046700
     49 H19          1.9230     0.0000     3.3330 ha         1 6F1       0.153000
     50 H20         -2.4620    -2.0000     2.9830 h1         1 6F1       0.088200
     51 H21         -1.7260    -3.4080     3.7610 h1         1 6F1       0.088200
@<TRIPOS>BOND
     1    29     9 1   
     2    28     9 1   
     3     9    23 1   
     4     9    27 1   
     5    23    11 1   
     6    11    16 1   
     7    11    30 1   
     8     3    30 2   
     9    19    30 2   
    10    17    16 ar  
    11    17    18 ar  
    12    16     4 ar  
    13    30    20 1   
    14    18    14 ar  
    15     4    15 ar  
    16    14    15 ar  
    17    14    24 1   
    18    15    10 1   
    19    20     8 ar  
    20    20    22 ar  
    21    24    12 1   
    22    24    25 1   
    23     7    25 1   
    24     7    10 1   
    25    12    13 1   
    26    25    26 2   
    27     8     1 ar  
    28    22     6 ar  
    29     1     2 ar  
    30     6    21 1   
    31     6     2 ar  
    32     2     5 1   
    33     1    31 1   
    34     4    32 1   
    35     5    33 1   
    36     5    34 1   
    37     5    35 1   
    38     7    36 1   
    39     7    37 1   
    40     8    38 1   
    41    12    39 1   
    42    12    40 1   
    43    13    41 1   
    44    13    42 1   
    45    13    43 1   
    46    17    44 1   
    47    18    45 1   
    48    21    46 1   
    49    21    47 1   
    50    21    48 1   
    51    22    49 1   
    52    23    50 1   
    53    23    51 1   
@<TRIPOS>SUBSTRUCTURE
     1 6F1         1 TEMP              0 ****  ****    0 ROOT
