@<TRIPOS>MOLECULE
6F1
   51    53     1     0     0
SMALL
bcc


@<TRIPOS>ATOM
      1 C13          0.0000     0.0000     0.0000 ca         1 6F1      -0.128000
      2 C14          1.3830     0.0000     0.0000 ca         1 6F1      -0.032300
      3 O2          -0.0470     0.6730     4.8630 o          1 6F1      -0.569800
      4 C19          0.0700    -1.5090     6.5810 ca         1 6F1      -0.069000
      5 C15          2.1370     0.0010    -1.3050 c3         1 6F1       0.053200
      6 C16          2.0730     0.0000     1.1980 ca         1 6F1      -0.120300
      7 C1           1.4950    -2.3800     9.7640 c3         1 6F1       0.147400
      8 C12         -0.6920     0.0050     1.1970 ca         1 6F1      -0.002000
      9 C10         -3.2310    -2.4300     4.9430 c3         1 6F1       0.551900
     10 O1           1.1450    -1.4840     8.7080 os         1 6F1      -0.294900
     11 N1          -1.0070    -1.5570     4.4200 nh         1 6F1      -0.360900
     12 C4           3.7750    -4.5370     7.5640 c3         1 6F1       0.029000
     13 C5           5.0060    -3.7190     7.1650 c3         1 6F1      -0.013100
     14 C3           1.7800    -3.1190     7.1000 ca         1 6F1      -0.130400
     15 C2           0.9940    -2.0270     7.4690 ca         1 6F1       0.118100
     16 C8          -0.0750    -2.0800     5.3220 ca         1 6F1       0.053600
     17 C7           0.7060    -3.1700     4.9580 ca         1 6F1      -0.115000
     18 C6           1.6290    -3.6890     5.8470 ca         1 6F1      -0.112000
     19 O3          -2.2030     0.4470     3.6180 o          1 6F1      -0.569800
     20 C11         -0.0010     0.0090     2.3940 ca         1 6F1      -0.168500
     21 C17          3.5800    -0.0000     1.1990 c3         1 6F1       0.064200
     22 C18          1.3820    -0.0020     2.3950 ca         1 6F1       0.013000
     23 C9          -2.0950    -2.4020     3.9200 c3         1 6F1       0.171800
     24 N            2.7130    -3.6320     8.0130 n          1 6F1       0.018000
     25 C            2.6180    -3.2810     9.3150 c          1 6F1       0.578500
     26 O            3.4300    -3.6880    10.1170 o          1 6F1      -0.654500
     27 F1          -3.6250    -1.1210     5.2390 f          1 6F1      -0.202967
     28 F           -4.3180    -3.1350     4.4140 f          1 6F1      -0.202967
     29 F2          -2.7910    -3.0610     6.1120 f          1 6F1      -0.202967
     30 S           -0.8820     0.0170     3.9200 sy         1 6F1       1.046200
     31 H1          -0.5420    -0.0040    -0.9380 ha         1 6F1       0.114000
     32 H2          -0.5900    -0.7090     6.8920 ha         1 6F1       0.142000
     33 H3           2.7250    -0.9060    -1.3830 hc         1 6F1       0.014033
     34 H4           1.4340     0.0470    -2.1280 hc         1 6F1       0.014033
     35 H5           2.7940     0.8620    -1.3420 hc         1 6F1       0.014033
     36 H6           0.6330    -2.9820    10.0250 h1         1 6F1       0.039700
     37 H7           1.8160    -1.8090    10.6270 h1         1 6F1       0.039700
     38 H8          -1.7750     0.0090     1.1970 ha         1 6F1       0.123000
     39 H9           3.4250    -5.1030     6.7090 h1         1 6F1       0.037700
     40 H10          4.0380    -5.2170     8.3640 h1         1 6F1       0.037700
     41 H11          5.1970    -3.8470     6.1060 hc         1 6F1       0.011700
     42 H12          5.8650    -4.0600     7.7300 hc         1 6F1       0.011700
     43 H13          4.8270    -2.6710     7.3750 hc         1 6F1       0.011700
     44 H14          0.5920    -3.6140     3.9770 ha         1 6F1       0.109000
     45 H15          2.2380    -4.5390     5.5620 ha         1 6F1       0.120000
     46 H16          3.9410    -0.0530     2.2190 hc         1 6F1       0.011367
     47 H17          3.9420    -0.8570     0.6430 hc         1 6F1       0.011367
     48 H18          3.9420     0.9100     0.7340 hc         1 6F1       0.011367
     49 H19          1.9230     0.0000     3.3330 ha         1 6F1       0.126000
     50 H20         -2.4620    -2.0000     2.9830 h1         1 6F1       0.053700
     51 H21         -1.7260    -3.4080     3.7610 h1         1 6F1       0.053700
@<TRIPOS>BOND
     1     1     2 ar  
     2     1     8 ar  
     3     1    31 1   
     4     2     5 1   
     5     2     6 ar  
     6     3    30 2   
     7     4    15 ar  
     8     4    16 ar  
     9     4    32 1   
    10     5    33 1   
    11     5    34 1   
    12     5    35 1   
    13     6    21 1   
    14     6    22 ar  
    15     7    10 1   
    16     7    25 1   
    17     7    36 1   
    18     7    37 1   
    19     8    20 ar  
    20     8    38 1   
    21     9    23 1   
    22     9    27 1   
    23     9    28 1   
    24     9    29 1   
    25    10    15 1   
    26    11    16 1   
    27    11    23 1   
    28    11    30 1   
    29    12    13 1   
    30    12    24 1   
    31    12    39 1   
    32    12    40 1   
    33    13    41 1   
    34    13    42 1   
    35    13    43 1   
    36    14    15 ar  
    37    14    18 ar  
    38    14    24 1   
    39    16    17 ar  
    40    17    18 ar  
    41    17    44 1   
    42    18    45 1   
    43    19    30 2   
    44    20    22 ar  
    45    20    30 1   
    46    21    46 1   
    47    21    47 1   
    48    21    48 1   
    49    22    49 1   
    50    23    50 1   
    51    23    51 1   
    52    24    25 1   
    53    25    26 2   
@<TRIPOS>SUBSTRUCTURE
     1 6F1         1 TEMP              0 ****  ****    0 ROOT
