@<TRIPOS>MOLECULE
6F2
   66    71     1     0     0
SMALL
bcc


@<TRIPOS>ATOM
      1 C01          0.0000     0.0000     0.0000 c3         1 6F2       0.189100
      2 N02          1.4690     0.0000     0.0000 n3         1 6F2      -0.545600
      3 C03          1.9950     0.0000     1.3710 c3         1 6F2       0.138300
      4 C04          3.5160    -0.1830     1.3310 c3         1 6F2       0.037000
      5 N05          4.0870     0.8430     0.4460 n          1 6F2      -0.151800
      6 C06          5.1060     1.6240     0.8580 c          1 6F2       0.613700
      7 O07          5.4950     1.5580     2.0090 o          1 6F2      -0.643100
      8 C08          5.7500     2.5610    -0.0870 ca         1 6F2      -0.151600
      9 C09          6.1480     3.8280     0.3410 ca         1 6F2      -0.030000
     10 C10          6.7480     4.6960    -0.5460 ca         1 6F2      -0.112000
     11 C11          6.9560     4.3140    -1.8590 ca         1 6F2      -0.040000
     12 C12          6.5640     3.0590    -2.2920 ca         1 6F2      -0.136300
     13 C13          6.7950     2.6510    -3.7240 c3         1 6F2       0.058600
     14 N14          8.1080     2.0130    -3.8440 na         1 6F2       0.492400
     15 C15          8.3490     0.7900    -4.3550 cc         1 6F2      -0.230300
     16 C16          9.6950     0.5700    -4.2870 cd         1 6F2      -0.276300
     17 C17         10.4090    -0.6470    -4.7380 ca         1 6F2       0.111000
     18 C18         10.4370    -1.0080    -6.0860 ca         1 6F2      -0.177900
     19 Cl           9.6300    -0.0280    -7.2710 cl         1 6F2      -0.010400
     20 C20         11.1130    -2.1510    -6.4690 ca         1 6F2       0.409200
     21 N21         11.7340    -2.9110    -5.5890 nb         1 6F2      -0.559000
     22 C22         11.7420    -2.6220    -4.2970 ca         1 6F2       0.180800
     23 N23         12.2990    -3.2290    -3.1900 na         1 6F2       0.161000
     24 C24         11.9740    -2.4670    -2.0990 cc         1 6F2       0.337400
     25 C25         12.3730    -2.7610    -0.7070 cc         1 6F2      -0.343200
     26 C26         13.1260    -3.8330    -0.2810 cd         1 6F2      -0.253300
     27 N27         13.2610    -3.7260     1.0540 na         1 6F2       0.511400
     28 C28         13.9890    -4.6570     1.9190 c3         1 6F2       0.019600
     29 N29         12.5850    -2.5750     1.4750 nd         1 6F2      -0.655800
     30 C30         12.0580    -1.9910     0.4330 cc         1 6F2       0.423600
     31 C31         11.2510    -0.7170     0.4460 c3         1 6F2      -0.011400
     32 N32         11.2560    -1.4370    -2.4790 nd         1 6F2      -0.514100
     33 C33         11.0860    -1.4750    -3.8200 ca         1 6F2      -0.028900
     34 C34         10.2820     1.7160    -3.7100 cd         1 6F2       0.433200
     35 N35          9.3310     2.5740    -3.4540 nc         1 6F2      -0.650800
     36 C36          5.9670     2.1790    -1.4120 ca         1 6F2      -0.077000
     37 C37          3.5170     0.9960    -0.9010 c3         1 6F2       0.037000
     38 C38          1.9960     1.1320    -0.7730 c3         1 6F2       0.138300
     39 H011        -0.3610    -0.8650     0.5430 h1         1 6F2       0.001700
     40 H012        -0.3610     0.9030     0.4770 h1         1 6F2       0.001700
     41 H013        -0.3610    -0.0380    -1.0210 h1         1 6F2       0.001700
     42 H031         1.7580     0.9430     1.8480 h1         1 6F2       0.016200
     43 H032         1.5490    -0.8150     1.9290 h1         1 6F2       0.016200
     44 H381         1.5490     1.1330    -1.7600 h1         1 6F2       0.016200
     45 H382         1.7590     2.0580    -0.2620 h1         1 6F2       0.016200
     46 H041         3.7530    -1.1670     0.9460 h1         1 6F2       0.039450
     47 H042         3.9220    -0.0690     2.3290 h1         1 6F2       0.039450
     48 H371         3.9230     1.8840    -1.3690 h1         1 6F2       0.039450
     49 H372         3.7540     0.1230    -1.4970 h1         1 6F2       0.039450
     50 H09          5.9850     4.1290     1.3690 ha         1 6F2       0.120000
     51 H36          5.6600     1.1970    -1.7520 ha         1 6F2       0.118000
     52 H10          7.0570     5.6800    -0.2140 ha         1 6F2       0.110000
     53 H11          7.4280     5.0000    -2.5520 ha         1 6F2       0.113000
     54 H131         6.7590     3.5270    -4.3590 h1         1 6F2       0.031200
     55 H132         6.0250     1.9520    -4.0280 h1         1 6F2       0.031200
     56 H15          7.6000     0.0660    -4.6540 h4         1 6F2       0.148000
     57 H34         11.3380     1.8610    -3.5180 h4         1 6F2       0.009100
     58 H20         11.1340    -2.4290    -7.5160 h4         1 6F2      -0.011900
     59 H23         12.7320    -4.1320    -3.1690 hn         1 6F2       0.130700
     60 H26         13.6370    -4.5450    -0.9180 h4         1 6F2       0.141000
     61 H281        13.5870    -5.6550     1.7960 h1         1 6F2       0.023367
     62 H282        13.8810    -4.3500     2.9520 h1         1 6F2       0.023367
     63 H283        15.0390    -4.6550     1.6500 h1         1 6F2       0.023367
     64 H311        11.1190    -0.3840     1.4690 hc         1 6F2       0.021700
     65 H312        10.2820    -0.8990    -0.0030 hc         1 6F2       0.021700
     66 H313        11.7730     0.0460    -0.1170 hc         1 6F2       0.021700
@<TRIPOS>BOND
     1     1     2 1   
     2     1    39 1   
     3     1    40 1   
     4     1    41 1   
     5     2     3 1   
     6     2    38 1   
     7     3     4 1   
     8     3    42 1   
     9     3    43 1   
    10     4     5 1   
    11     4    46 1   
    12     4    47 1   
    13     5     6 1   
    14     5    37 1   
    15     6     7 2   
    16     6     8 1   
    17     8     9 ar  
    18     8    36 ar  
    19     9    10 ar  
    20     9    50 1   
    21    10    11 ar  
    22    10    52 1   
    23    11    12 ar  
    24    11    53 1   
    25    12    13 1   
    26    12    36 ar  
    27    13    14 1   
    28    13    54 1   
    29    13    55 1   
    30    14    15 1   
    31    14    35 1   
    32    15    16 2   
    33    15    56 1   
    34    16    17 1   
    35    16    34 1   
    36    17    18 ar  
    37    17    33 ar  
    38    18    19 1   
    39    18    20 ar  
    40    20    21 ar  
    41    20    58 1   
    42    21    22 ar  
    43    22    23 1   
    44    22    33 ar  
    45    23    24 1   
    46    23    59 1   
    47    24    25 1   
    48    24    32 2   
    49    25    26 2   
    50    25    30 1   
    51    26    27 1   
    52    26    60 1   
    53    27    28 1   
    54    27    29 1   
    55    28    61 1   
    56    28    62 1   
    57    28    63 1   
    58    29    30 2   
    59    30    31 1   
    60    31    64 1   
    61    31    65 1   
    62    31    66 1   
    63    32    33 1   
    64    34    35 2   
    65    34    57 1   
    66    36    51 1   
    67    37    38 1   
    68    37    48 1   
    69    37    49 1   
    70    38    44 1   
    71    38    45 1   
@<TRIPOS>SUBSTRUCTURE
     1 6F2         1 TEMP              0 ****  ****    0 ROOT
