@<TRIPOS>MOLECULE
6F4
   21    22     1     0     0
SMALL
bcc


@<TRIPOS>ATOM
      1 CAB          0.0000     0.0000     0.0000 cc         1 6F4      -0.102000
      2 CAA          1.3850     0.0000     0.0000 cc         1 6F4      -0.132000
      3 CAE          1.9460     0.0000     1.2100 cd         1 6F4       0.019900
      4 SAD          0.6920     0.0010     2.4430 ss         1 6F4      -0.263800
      5 CAC         -0.5620     0.0050     1.2080 cd         1 6F4      -0.028400
      6 CAF         -2.0450     0.0090     1.4770 c3         1 6F4       0.264100
      7 NAG         -2.5290    -1.3720     1.5610 nu         1 6F4      -0.465900
      8 CAH         -3.8740    -1.6230     1.8040 cc         1 6F4       0.594300
      9 SAJ         -4.6050    -3.2190     1.9390 ss         1 6F4      -0.508800
     10 NAI         -4.7880    -0.7200     1.9720 nd         1 6F4      -0.429000
     11 NAL         -6.0610    -1.1970     2.2010 nd         1 6F4      -0.276000
     12 CAK         -6.1810    -2.4860     2.2210 cc         1 6F4       0.531300
     13 NAM         -7.3650    -3.1810     2.4360 nv         1 6F4      -0.532500
     14 H1          -0.5820     0.0010    -0.9130 ha         1 6F4       0.125000
     15 H2           1.9680    -0.0020    -0.9130 ha         1 6F4       0.123000
     16 H3           3.0120    -0.0010     1.4040 h4         1 6F4       0.150000
     17 H4          -2.5570     0.5220     0.6720 h1         1 6F4       0.036700
     18 H5          -2.2420     0.5180     2.4130 h1         1 6F4       0.036700
     19 H6          -1.8840    -2.1330     1.4790 hn         1 6F4       0.306800
     20 H7          -7.4980    -3.6920     3.2860 hn         1 6F4       0.275800
     21 H8          -8.0790    -3.1830     1.7340 hn         1 6F4       0.275800
@<TRIPOS>BOND
     1     1     2 1   
     2     1     5 2   
     3     1    14 1   
     4     2     3 2   
     5     2    15 1   
     6     3     4 1   
     7     3    16 1   
     8     4     5 1   
     9     5     6 1   
    10     6     7 1   
    11     6    17 1   
    12     6    18 1   
    13     7     8 1   
    14     7    19 1   
    15     8     9 1   
    16     8    10 2   
    17     9    12 1   
    18    10    11 1   
    19    11    12 2   
    20    12    13 1   
    21    13    20 1   
    22    13    21 1   
@<TRIPOS>SUBSTRUCTURE
     1 6F4         1 TEMP              0 ****  ****    0 ROOT
