@<TRIPOS>MOLECULE
molecule
   21    22     1     0     0
SMALL
bcc


@<TRIPOS>ATOM
      1 CAB          0.0000     0.0000     0.0000 cc         1 6F4      -0.133000
      2 CAA          1.3850     0.0000     0.0000 cc         1 6F4      -0.163000
      3 CAE          1.9460     0.0000     1.2100 cd         1 6F4      -0.062100
      4 SAD          0.6920     0.0010     2.4430 ss         1 6F4      -0.148800
      5 CAC         -0.5620     0.0050     1.2080 cd         1 6F4      -0.068400
      6 CAF         -2.0450     0.0090     1.4770 c3         1 6F4       0.324100
      7 NAG         -2.5290    -1.3720     1.5610 nu         1 6F4      -0.897900
      8 CAH         -3.8740    -1.6230     1.8040 cc         1 6F4       0.724300
      9 SAJ         -4.6050    -3.2190     1.9390 ss         1 6F4      -0.451800
     10 NAI         -4.7880    -0.7200     1.9720 nd         1 6F4      -0.429000
     11 NAL         -6.0610    -1.1970     2.2010 nd         1 6F4      -0.325000
     12 CAK         -6.1810    -2.4860     2.2210 cc         1 6F4       0.684300
     13 NAM         -7.3650    -3.1810     2.4360 nv         1 6F4      -1.016500
     14 H1          -0.5820     0.0010    -0.9130 ha         1 6F4       0.153000
     15 H2           1.9680    -0.0020    -0.9130 ha         1 6F4       0.151000
     16 H3           3.0120    -0.0010     1.4040 h4         1 6F4       0.173000
     17 H4          -2.5570     0.5220     0.6720 h1         1 6F4       0.066200
     18 H5          -2.2420     0.5180     2.4130 h1         1 6F4       0.066200
     19 H6          -1.8840    -2.1330     1.4790 hn         1 6F4       0.459800
     20 H7          -7.4980    -3.6920     3.2860 hn         1 6F4       0.446800
     21 H8          -8.0790    -3.1830     1.7340 hn         1 6F4       0.446800
@<TRIPOS>BOND
     1     4     5 1   
     2     4     3 1   
     3     9     8 1   
     4     9    12 1   
     5     7     6 1   
     6     7     8 1   
     7     6     5 1   
     8     8    10 2   
     9    12    13 1   
    10    12    11 2   
    11     5     1 2   
    12     3     2 2   
    13    10    11 1   
    14     1     2 1   
    15     1    14 1   
    16     2    15 1   
    17     3    16 1   
    18     6    17 1   
    19     6    18 1   
    20     7    19 1   
    21    13    20 1   
    22    13    21 1   
@<TRIPOS>SUBSTRUCTURE
     1 6F4         1 TEMP              0 ****  ****    0 ROOT
