@<TRIPOS>MOLECULE
molecule
   25    24     1     0     0
SMALL
bcc


@<TRIPOS>ATOM
      1 CAB          0.0000     0.0000     0.0000 c3         1 6F5      -0.086100
      2 CAC          1.5300     0.0000     0.0000 c3         1 6F5      -0.079700
      3 CAD          2.0400     0.0000     1.4420 c3         1 6F5      -0.086100
      4 CAE          2.0400    -1.2490    -0.7220 c3         1 6F5      -0.076400
      5 CAF          3.5640    -1.1880    -0.8320 c3         1 6F5      -0.089400
      6 CAG          4.0740    -2.4370    -1.5540 c3         1 6F5      -0.063400
      7 CAH          5.5990    -2.3760    -1.6640 c3         1 6F5      -0.182400
      8 CAI          6.1010    -3.6060    -2.3740 c          1 6F5       0.890600
      9 OAJ          5.3190    -4.4460    -2.7540 o          1 6F5      -0.858800
     10 H1          -0.3610    -0.0150    -1.0210 hc         1 6F5       0.028033
     11 H2          -0.3610     0.8920     0.4970 hc         1 6F5       0.028033
     12 H3          -0.3610    -0.8770     0.5240 hc         1 6F5       0.028033
     13 H4           1.8910     0.8850    -0.5110 hc         1 6F5       0.044700
     14 H5           1.3730     0.5880     2.0610 hc         1 6F5       0.028033
     15 H6           3.0340     0.4290     1.4730 hc         1 6F5       0.028033
     16 H7           2.0740    -1.0170     1.8130 hc         1 6F5       0.028033
     17 H8           1.7530    -2.1320    -0.1630 hc         1 6F5       0.039200
     18 H9           1.6080    -1.2950    -1.7140 hc         1 6F5       0.039200
     19 H10          3.8510    -0.3050    -1.3910 hc         1 6F5       0.029700
     20 H11          3.9960    -1.1420     0.1610 hc         1 6F5       0.029700
     21 H12          3.6420    -2.4820    -2.5460 hc         1 6F5       0.044700
     22 H13          3.7870    -3.3190    -0.9940 hc         1 6F5       0.044700
     23 H14          5.8860    -1.4940    -2.2240 hc         1 6F5       0.026700
     24 H15          6.0310    -2.3300    -0.6720 hc         1 6F5       0.026700
     25 O1           7.4170    -3.7690    -2.5850 o          1 6F5      -0.858800
@<TRIPOS>BOND
     1     3     2 1
     2     2     1 1
     3     2     4 1
     4     5     4 1
     5     5     6 1
     6     7     6 1
     7     7     8 1
     8     8     9 1
     9     1    10 1
    10     1    11 1
    11     1    12 1
    12     2    13 1
    13     3    14 1
    14     3    15 1
    15     3    16 1
    16     4    17 1
    17     4    18 1
    18     5    19 1
    19     5    20 1
    20     6    21 1
    21     6    22 1
    22     7    23 1
    23     7    24 1
    24     8    25 1
@<TRIPOS>SUBSTRUCTURE
     1 6F5         1 TEMP              0 ****  ****    0 ROOT
