@<TRIPOS>MOLECULE
molecule
   55    55     1     0     0
SMALL
bcc


@<TRIPOS>ATOM
      1 CAA          0.0000     0.0000     0.0000 c3         1 6F8      -0.102100
      2 CAK          1.5300     0.0000     0.0000 c3         1 6F8      -0.092400
      3 CAM          2.0400     0.0000     1.4430 c3         1 6F8       0.013800
      4 CAF          3.5470    -0.0010     1.4440 c2         1 6F8      -0.239200
      5 CAD          4.2020     0.8980     2.1370 c2         1 6F8      -0.185200
      6 CAL          3.4580     1.8220     3.0650 c3         1 6F8       0.292000
      7 CAE          4.0660     1.7460     4.4410 c2         1 6F8      -0.188200
      8 CAG          4.4330     2.8430     5.0580 c2         1 6F8      -0.236200
      9 CAN          4.0950     4.1880     4.4660 c3         1 6F8       0.012800
     10 CAO          3.3640     5.0350     5.5110 c3         1 6F8      -0.091400
     11 CAP          3.0200     6.4000     4.9110 c3         1 6F8      -0.091400
     12 CAQ          2.2910     7.2460     5.9560 c3         1 6F8      -0.079400
     13 CAR          1.9470     8.6110     5.3560 c3         1 6F8      -0.082400
     14 CAS          1.2170     9.4590     6.4010 c3         1 6F8      -0.076400
     15 CAT          0.8740    10.8240     5.8010 c3         1 6F8      -0.027100
     16 CAW          0.1540    11.6580     6.8290 ca         1 6F8      -0.082300
     17 CAJ         -1.2280    11.6880     6.8510 ca         1 6F8      -0.124000
     18 CAH         -1.8910    12.4510     7.7940 ca         1 6F8      -0.122000
     19 CAI         -1.1740    13.1890     8.7180 ca         1 6F8      -0.160000
     20 CAU          0.2110    13.1620     8.7020 ca         1 6F8       0.067100
     21 OAB          0.9170    13.8860     9.6130 oh         1 6F8      -0.507100
     22 CAV          0.8780    12.3890     7.7560 ca         1 6F8       0.096100
     23 OAC          2.2380    12.3600     7.7370 oh         1 6F8      -0.501100
     24 H1          -0.3610     0.9560     0.3600 hc         1 6F8       0.034033
     25 H2          -0.3610    -0.1660    -1.0080 hc         1 6F8       0.034033
     26 H3          -0.3610    -0.7890     0.6480 hc         1 6F8       0.034033
     27 H4           1.8910    -0.8850    -0.5110 hc         1 6F8       0.054200
     28 H5           1.8910     0.8850    -0.5110 hc         1 6F8       0.054200
     29 H6           1.6780    -0.8840     1.9530 hc         1 6F8       0.042700
     30 H7           1.6790     0.8850     1.9530 hc         1 6F8       0.042700
     31 H8           2.9890    -0.4890     2.2340 ha         1 6F8       0.119000
     32 H9           3.7390     1.8050     1.7670 ha         1 6F8      -0.008000
     33 H10          2.4170     1.5260     3.1130 hc         1 6F8       0.051700
     34 H11          3.5270     2.8380     2.6960 hc         1 6F8       0.051700
     35 H12          3.0090     1.9430     4.3080 ha         1 6F8      -0.008000
     36 H13          5.0610     3.2920     4.2980 ha         1 6F8       0.118000
     37 H14          5.0070     4.6910     4.1680 hc         1 6F8       0.043200
     38 H15          3.4570     4.0520     3.6010 hc         1 6F8       0.043200
     39 H16          4.0020     5.1710     6.3760 hc         1 6F8       0.055700
     40 H17          2.4520     4.5320     5.8100 hc         1 6F8       0.055700
     41 H18          2.3820     6.2640     4.0460 hc         1 6F8       0.038700
     42 H19          3.9320     6.9030     4.6120 hc         1 6F8       0.038700
     43 H20          2.9290     7.3820     6.8210 hc         1 6F8       0.045200
     44 H21          1.3790     6.7430     6.2550 hc         1 6F8       0.045200
     45 H22          2.8590     9.1140     5.0570 hc         1 6F8       0.039200
     46 H23          1.3090     8.4750     4.4920 hc         1 6F8       0.039200
     47 H24          1.8560     9.5940     7.2650 hc         1 6F8       0.051700
     48 H25          0.3060     8.9560     6.7000 hc         1 6F8       0.051700
     49 H26          0.2360    10.6880     4.9360 hc         1 6F8       0.049700
     50 H27          1.7860    11.3270     5.5020 hc         1 6F8       0.049700
     51 H28         -1.7930    11.1110     6.1290 ha         1 6F8       0.136000
     52 H29         -2.9740    12.4730     7.8070 ha         1 6F8       0.134000
     53 H30         -1.6960    13.7870     9.4560 ha         1 6F8       0.139000
     54 H31          0.7660    14.8050     9.4690 ho         1 6F8       0.414000
     55 H32          2.5680    13.2210     7.5370 ho         1 6F8       0.417000
@<TRIPOS>BOND
     1    21    20 1
     2    20    19 ar
     3    20    22 ar
     4    19    18 ar
     5    23    22 1
     6    22    16 ar
     7    18    17 ar
     8    16    17 ar
     9    16    15 1
    10    14    15 1
    11    14    13 1
    12    13    12 1
    13    12    11 1
    14    11    10 1
    15     9    10 1
    16     9     8 1
    17     8     7 2
    18     6     7 1
    19     6     5 1
    20     1     2 1
    21     3     2 1
    22     3     4 1
    23     5     4 2
    24     1    24 1
    25     1    25 1
    26     1    26 1
    27     2    27 1
    28     2    28 1
    29     3    29 1
    30     3    30 1
    31     4    31 1
    32     5    32 1
    33     6    33 1
    34     6    34 1
    35     7    35 1
    36     8    36 1
    37     9    37 1
    38     9    38 1
    39    10    39 1
    40    10    40 1
    41    11    41 1
    42    11    42 1
    43    12    43 1
    44    12    44 1
    45    13    45 1
    46    13    46 1
    47    14    47 1
    48    14    48 1
    49    15    49 1
    50    15    50 1
    51    17    51 1
    52    18    52 1
    53    19    53 1
    54    21    54 1
    55    23    55 1
@<TRIPOS>SUBSTRUCTURE
     1 6F8         1 TEMP              0 ****  ****    0 ROOT
