@<TRIPOS>MOLECULE
6F9
   70    73     1     0     0
SMALL
bcc


@<TRIPOS>ATOM
      1 O3           0.0000     0.0000     0.0000 os         1 6F9      -0.307400
      2 C4           8.0370    -1.3340    -4.3720 c3         1 6F9       0.205400
      3 C5           6.8740    -0.0160    -2.7960 ca         1 6F9       0.195100
      4 O4           3.7340    -2.0070    -5.4040 o          1 6F9      -0.645100
      5 C6           5.5570     0.0090    -3.2360 ca         1 6F9      -0.171300
      6 N1           8.7880    -0.0280     0.3890 ns         1 6F9      -0.200900
      7 C7           5.2970     0.0760    -4.7280 c3         1 6F9       0.117300
      8 C8           4.5130    -0.0010    -2.3420 ca         1 6F9      -0.030000
      9 N2          12.0590    -1.5020     1.4260 n3         1 6F9      -0.533600
     10 C9           4.7720    -0.0000    -0.9680 cp         1 6F9      -0.058000
     11 C10          6.0840     0.0000    -0.5100 ca         1 6F9      -0.065000
     12 C11          7.1410    -0.0150    -1.4190 ca         1 6F9      -0.179600
     13 C12          8.5340    -0.0290    -0.9340 c          1 6F9       0.597700
     14 C13         10.1720    -0.0420     0.8700 c3         1 6F9       0.019700
     15 C14         10.2310     0.5660     2.2740 c3         1 6F9      -0.039400
     16 C15         11.6700     0.4930     2.7930 c3         1 6F9      -0.017400
     17 C1           5.4100    -3.4130    -6.2880 c3         1 6F9      -0.103400
     18 C            4.2310    -4.3600    -6.5230 c3         1 6F9       0.020900
     19 N            5.7830    -1.1570    -5.3490 n          1 6F9      -0.156800
     20 C19          3.6470     0.0000     0.0000 cp         1 6F9       0.048000
     21 C24          3.9030     0.0000     1.3680 ca         1 6F9      -0.186000
     22 C23          2.8510     0.0000     2.2690 ca         1 6F9       0.198600
     23 O2           3.1010    -0.0000     3.6060 os         1 6F9      -0.307400
     24 C25          1.9680    -0.0000     4.4770 c3         1 6F9       0.245700
     25 C22          1.5420    -0.0000     1.8090 ca         1 6F9      -0.322000
     26 C21          1.2840     0.0000     0.4470 ca         1 6F9       0.198600
     27 C26         -1.0320    -0.0000     0.9880 c3         1 6F9       0.245700
     28 C20          2.3320     0.0050    -0.4590 ca         1 6F9      -0.186000
     29 O            7.8910    -0.0850    -3.6850 os         1 6F9      -0.293900
     30 C3           7.2070    -1.3280    -5.6460 c3         1 6F9      -0.007000
     31 O1           9.4540    -0.0420    -1.7290 o          1 6F9      -0.631100
     32 C18         10.6800    -1.4850     0.9230 c3         1 6F9       0.135800
     33 C17         12.6270    -2.8560     1.3600 c3         1 6F9       0.188100
     34 C16         12.1340    -0.9660     2.7910 c3         1 6F9       0.150800
     35 H1           9.0790    -1.4650    -4.6370 h1         1 6F9       0.022700
     36 H2           7.6780    -2.1280    -3.7280 h1         1 6F9       0.022700
     37 H3           8.0310    -0.0160     1.0440 hn         1 6F9       0.177500
     38 H4           4.2300     0.1560    -4.8950 h1         1 6F9       0.045700
     39 H5           5.8420     0.9160    -5.1420 h1         1 6F9       0.045700
     40 H6           3.4910    -0.0010    -2.7020 ha         1 6F9       0.129000
     41 H8           6.2850     0.0010     0.5550 ha         1 6F9       0.115000
     42 H9          10.7980     0.5350     0.2010 h1         1 6F9       0.071700
     43 H10          9.9150     1.6010     2.2330 hc         1 6F9       0.016200
     44 H11          9.5800     0.0090     2.9370 hc         1 6F9       0.016200
     45 H12         12.3150     1.0770     2.1490 hc         1 6F9       0.021700
     46 H13         11.7090     0.8820     3.8030 hc         1 6F9       0.021700
     47 H14          5.8830    -3.1840    -7.2360 hc         1 6F9       0.027700
     48 H15          6.1290    -3.8880    -5.6310 hc         1 6F9       0.027700
     49 H16          3.5010    -3.8770    -7.1610 hc         1 6F9       0.009033
     50 H17          3.7720    -4.6070    -5.5730 hc         1 6F9       0.009033
     51 H18          4.5840    -5.2660    -7.0000 hc         1 6F9       0.009033
     52 H19          4.9240     0.0410     1.7280 ha         1 6F9       0.126000
     53 H20          2.3040     0.0010     5.5070 h1         1 6F9      -0.002800
     54 H21          1.3700     0.8840     4.2920 h1         1 6F9      -0.002800
     55 H22          1.3710    -0.8850     4.2930 h1         1 6F9      -0.002800
     56 H23          0.7210    -0.0000     2.5160 ha         1 6F9       0.139000
     57 H24         -0.9400     0.8850     1.6060 h1         1 6F9      -0.002800
     58 H25         -1.9990    -0.0020     0.5010 h1         1 6F9      -0.002800
     59 H26         -0.9380    -0.8850     1.6070 h1         1 6F9      -0.002800
     60 H27          2.1290     0.0580    -1.5220 ha         1 6F9       0.126000
     61 H28          7.5360    -0.5140    -6.2790 h1         1 6F9       0.035200
     62 H29          7.3490    -2.2680    -6.1650 h1         1 6F9       0.035200
     63 H30         10.6550    -1.9120    -0.0720 h1         1 6F9       0.016700
     64 H31         10.0490    -2.0640     1.5860 h1         1 6F9       0.016700
     65 H32         12.0330    -3.5260     1.9700 h1         1 6F9       0.000367
     66 H33         12.6210    -3.2010     0.3330 h1         1 6F9       0.000367
     67 H34         13.6450    -2.8380     1.7290 h1         1 6F9       0.000367
     68 H35         11.4930    -1.5480     3.4420 h1         1 6F9       0.008200
     69 H36         13.1570    -1.0180     3.1420 h1         1 6F9       0.008200
     70 C2           4.9140    -2.1430    -5.6490 c          1 6F9       0.587100
@<TRIPOS>BOND
     1     1    26 1   
     2     1    27 1   
     3     2    29 1   
     4     2    30 1   
     5     2    35 1   
     6     2    36 1   
     7     3     5 ar  
     8     3    12 ar  
     9     3    29 1   
    10     4    70 2   
    11     5     7 1   
    12     5     8 ar  
    13     6    13 1   
    14     6    14 1   
    15     6    37 1   
    16     7    19 1   
    17     7    38 1   
    18     7    39 1   
    19     8    10 ar  
    20     8    40 1   
    21     9    32 1   
    22     9    33 1   
    23     9    34 1   
    24    10    11 ar  
    25    10    20 1   
    26    11    12 ar  
    27    11    41 1   
    28    12    13 1   
    29    13    31 2   
    30    14    15 1   
    31    14    32 1   
    32    14    42 1   
    33    15    16 1   
    34    15    43 1   
    35    15    44 1   
    36    16    34 1   
    37    16    45 1   
    38    16    46 1   
    39    17    18 1   
    40    17    47 1   
    41    17    48 1   
    42    17    70 1   
    43    18    49 1   
    44    18    50 1   
    45    18    51 1   
    46    19    30 1   
    47    19    70 1   
    48    20    21 ar  
    49    20    28 ar  
    50    21    22 ar  
    51    21    52 1   
    52    22    23 1   
    53    22    25 ar  
    54    23    24 1   
    55    24    53 1   
    56    24    54 1   
    57    24    55 1   
    58    25    26 ar  
    59    25    56 1   
    60    26    28 ar  
    61    27    57 1   
    62    27    58 1   
    63    27    59 1   
    64    28    60 1   
    65    30    61 1   
    66    30    62 1   
    67    32    63 1   
    68    32    64 1   
    69    33    65 1   
    70    33    66 1   
    71    33    67 1   
    72    34    68 1   
    73    34    69 1   
@<TRIPOS>SUBSTRUCTURE
     1 6F9         1 TEMP              0 ****  ****    0 ROOT
