@<TRIPOS>MOLECULE
molecule
   70    73     1     0     0
SMALL
bcc


@<TRIPOS>ATOM
      1 O3           0.0000     0.0000     0.0000 os         1 6F9      -0.325900
      2 C4           8.0370    -1.3340    -4.3720 c3         1 6F9       0.134400
      3 C5           6.8740    -0.0160    -2.7960 ca         1 6F9       0.180100
      4 O4           3.7340    -2.0070    -5.4040 o          1 6F9      -0.606100
      5 C6           5.5570     0.0090    -3.2360 ca         1 6F9      -0.154300
      6 N1           8.7880    -0.0280     0.3890 ns         1 6F9      -0.585900
      7 C7           5.2970     0.0760    -4.7280 c3         1 6F9       0.160300
      8 C8           4.5130    -0.0010    -2.3420 ca         1 6F9      -0.059000
      9 N2          12.0590    -1.5020     1.4260 n3         1 6F9      -0.727600
     10 C9           4.7720    -0.0000    -0.9680 cp         1 6F9      -0.057000
     11 C10          6.0840     0.0000    -0.5100 ca         1 6F9      -0.081000
     12 C11          7.1410    -0.0150    -1.4190 ca         1 6F9      -0.167600
     13 C12          8.5340    -0.0290    -0.9340 c          1 6F9       0.672700
     14 C13         10.1720    -0.0420     0.8700 c3         1 6F9       0.119700
     15 C14         10.2310     0.5660     2.2740 c3         1 6F9      -0.095400
     16 C15         11.6700     0.4930     2.7930 c3         1 6F9      -0.075400
     17 C1           5.4100    -3.4130    -6.2880 c3         1 6F9      -0.159400
     18 C            4.2310    -4.3600    -6.5230 c3         1 6F9      -0.077100
     19 N            5.7830    -1.1570    -5.3490 n          1 6F9      -0.493800
     20 C19          3.6470     0.0000     0.0000 cp         1 6F9       0.036000
     21 C24          3.9030     0.0000     1.3680 ca         1 6F9      -0.190500
     22 C23          2.8510     0.0000     2.2690 ca         1 6F9       0.181600
     23 O2           3.1010    -0.0000     3.6060 os         1 6F9      -0.325900
     24 C25          1.9680    -0.0000     4.4770 c3         1 6F9       0.129700
     25 C22          1.5420    -0.0000     1.8090 ca         1 6F9      -0.314000
     26 C21          1.2840     0.0000     0.4470 ca         1 6F9       0.181600
     27 C26         -1.0320    -0.0000     0.9880 c3         1 6F9       0.129700
     28 C20          2.3320     0.0050    -0.4590 ca         1 6F9      -0.190500
     29 O            7.8910    -0.0850    -3.6850 os         1 6F9      -0.314900
     30 C3           7.2070    -1.3280    -5.6460 c3         1 6F9       0.060000
     31 O1           9.4540    -0.0420    -1.7290 o          1 6F9      -0.588100
     32 C18         10.6800    -1.4850     0.9230 c3         1 6F9       0.148800
     33 C17         12.6270    -2.8560     1.3600 c3         1 6F9       0.156100
     34 C16         12.1340    -0.9660     2.7910 c3         1 6F9       0.159800
     35 H1           9.0790    -1.4650    -4.6370 h1         1 6F9       0.065200
     36 H2           7.6780    -2.1280    -3.7280 h1         1 6F9       0.065200
     37 H3           8.0310    -0.0160     1.0440 hn         1 6F9       0.312500
     38 H4           4.2300     0.1560    -4.8950 h1         1 6F9       0.077700
     39 H5           5.8420     0.9160    -5.1420 h1         1 6F9       0.077700
     40 H6           3.4910    -0.0010    -2.7020 ha         1 6F9       0.154000
     41 H8           6.2850     0.0010     0.5550 ha         1 6F9       0.136000
     42 H9          10.7980     0.5350     0.2010 h1         1 6F9       0.095700
     43 H10          9.9150     1.6010     2.2330 hc         1 6F9       0.044700
     44 H11          9.5800     0.0090     2.9370 hc         1 6F9       0.044700
     45 H12         12.3150     1.0770     2.1490 hc         1 6F9       0.052700
     46 H13         11.7090     0.8820     3.8030 hc         1 6F9       0.052700
     47 H14          5.8830    -3.1840    -7.2360 hc         1 6F9       0.058200
     48 H15          6.1290    -3.8880    -5.6310 hc         1 6F9       0.058200
     49 H16          3.5010    -3.8770    -7.1610 hc         1 6F9       0.044033
     50 H17          3.7720    -4.6070    -5.5730 hc         1 6F9       0.044033
     51 H18          4.5840    -5.2660    -7.0000 hc         1 6F9       0.044033
     52 H19          4.9240     0.0410     1.7280 ha         1 6F9       0.145500
     53 H20          2.3040     0.0010     5.5070 h1         1 6F9       0.041867
     54 H21          1.3700     0.8840     4.2920 h1         1 6F9       0.041867
     55 H22          1.3710    -0.8850     4.2930 h1         1 6F9       0.041867
     56 H23          0.7210    -0.0000     2.5160 ha         1 6F9       0.141000
     57 H24         -0.9400     0.8850     1.6060 h1         1 6F9       0.041867
     58 H25         -1.9990    -0.0020     0.5010 h1         1 6F9       0.041867
     59 H26         -0.9380    -0.8850     1.6070 h1         1 6F9       0.041867
     60 H27          2.1290     0.0580    -1.5220 ha         1 6F9       0.145500
     61 H28          7.5360    -0.5140    -6.2790 h1         1 6F9       0.060700
     62 H29          7.3490    -2.2680    -6.1650 h1         1 6F9       0.060700
     63 H30         10.6550    -1.9120    -0.0720 h1         1 6F9       0.041200
     64 H31         10.0490    -2.0640     1.5860 h1         1 6F9       0.041200
     65 H32         12.0330    -3.5260     1.9700 h1         1 6F9       0.032033
     66 H33         12.6210    -3.2010     0.3330 h1         1 6F9       0.032033
     67 H34         13.6450    -2.8380     1.7290 h1         1 6F9       0.032033
     68 H35         11.4930    -1.5480     3.4420 h1         1 6F9       0.033200
     69 H36         13.1570    -1.0180     3.1420 h1         1 6F9       0.033200
     70 C2           4.9140    -2.1430    -5.6490 c          1 6F9       0.661100
@<TRIPOS>BOND
     1    27     1 1   
     2     1    26 1   
     3    26    25 ar  
     4    26    28 ar  
     5    25    22 ar  
     6    24    23 1   
     7    18    17 1   
     8    28    20 ar  
     9    22    23 1   
    10    22    21 ar  
    11    17    70 1   
    12    20    21 ar  
    13    20    10 1   
    14     8    10 ar  
    15     8     5 ar  
    16    10    11 ar  
    17    70     4 2   
    18    70    19 1   
    19     7     5 1   
    20     7    19 1   
    21     5     3 ar  
    22    19    30 1   
    23    11    12 ar  
    24     3    12 ar  
    25     3    29 1   
    26    30     2 1   
    27    12    13 1   
    28    29     2 1   
    29    13     6 1   
    30    13    31 2   
    31     6    14 1   
    32    14    32 1   
    33    14    15 1   
    34    32     9 1   
    35    15    16 1   
    36     9    33 1   
    37     9    34 1   
    38    16    34 1   
    39     2    35 1   
    40     2    36 1   
    41     6    37 1   
    42     7    38 1   
    43     7    39 1   
    44     8    40 1   
    45    11    41 1   
    46    14    42 1   
    47    15    43 1   
    48    15    44 1   
    49    16    45 1   
    50    16    46 1   
    51    17    47 1   
    52    17    48 1   
    53    18    49 1   
    54    18    50 1   
    55    18    51 1   
    56    21    52 1   
    57    24    53 1   
    58    24    54 1   
    59    24    55 1   
    60    25    56 1   
    61    27    57 1   
    62    27    58 1   
    63    27    59 1   
    64    28    60 1   
    65    30    61 1   
    66    30    62 1   
    67    32    63 1   
    68    32    64 1   
    69    33    65 1   
    70    33    66 1   
    71    33    67 1   
    72    34    68 1   
    73    34    69 1   
@<TRIPOS>SUBSTRUCTURE
     1 6F9         1 TEMP              0 ****  ****    0 ROOT
