@<TRIPOS>MOLECULE
6FB
   23    25     1     0     0
SMALL
bcc


@<TRIPOS>ATOM
      1 C4           0.0000     0.0000     0.0000 ca         1 6FB      -0.012000
      2 C5           1.3910     0.0000     0.0000 ca         1 6FB      -0.294600
      3 C6           2.1340     0.0000     1.2030 ca         1 6FB       0.476200
      4 N1           3.4460    -0.0000     1.1250 nb         1 6FB      -0.631000
      5 C7           4.0900     0.0010    -0.0400 ca         1 6FB       0.718900
      6 C8           2.1370     0.0010    -1.2640 ca         1 6FB       0.402600
      7 N2           5.4720     0.0010    -0.0250 nv         1 6FB      -0.644500
      8 C9           1.4570     0.0000    -2.4790 ca         1 6FB      -0.136300
      9 C10          0.0650     0.0000    -2.4810 ca         1 6FB      -0.002000
     10 N3           3.4800     0.0010    -1.2070 nb         1 6FB      -0.618000
     11 C           -0.6810    -0.0010    -3.6810 ca         1 6FB      -0.208300
     12 C3          -0.6810    -0.0060    -1.2160 ca         1 6FB      -0.178300
     13 C2          -2.0890    -0.0060    -1.2800 ca         1 6FB       0.435200
     14 N           -2.6860    -0.0010    -2.4460 nb         1 6FB      -0.584000
     15 C1          -2.0370    -0.0010    -3.6030 ca         1 6FB       0.406200
     16 H1          -0.5420    -0.1570     0.9250 ha         1 6FB       0.113000
     17 H2           1.6350    -0.0010     2.1640 h4         1 6FB      -0.014900
     18 H3           5.9730     0.8680    -0.0250 hn         1 6FB       0.280800
     19 H4           5.9730    -0.8660    -0.0260 hn         1 6FB       0.280800
     20 H5           2.0000     0.1490    -3.4050 ha         1 6FB       0.128000
     21 H6          -0.1820    -0.0010    -4.6430 ha         1 6FB       0.120000
     22 H7          -2.6750    -0.0060    -0.3690 h4         1 6FB      -0.016900
     23 H8          -2.6110     0.0030    -4.5220 h4         1 6FB      -0.021900
@<TRIPOS>BOND
     1     1     2 ar  
     2     1    12 ar  
     3     1    16 1   
     4     2     3 ar  
     5     2     6 ar  
     6     3     4 ar  
     7     3    17 1   
     8     4     5 ar  
     9     5     7 1   
    10     5    10 ar  
    11     6     8 ar  
    12     6    10 ar  
    13     7    18 1   
    14     7    19 1   
    15     8     9 ar  
    16     8    20 1   
    17     9    11 ar  
    18     9    12 ar  
    19    11    15 ar  
    20    11    21 1   
    21    12    13 ar  
    22    13    14 ar  
    23    13    22 1   
    24    14    15 ar  
    25    15    23 1   
@<TRIPOS>SUBSTRUCTURE
     1 6FB         1 TEMP              0 ****  ****    0 ROOT
