@<TRIPOS>MOLECULE
molecule
   23    25     1     0     0
SMALL
bcc


@<TRIPOS>ATOM
      1 C4           0.0000     0.0000     0.0000 ca         1 6FB      -0.046000
      2 C5           1.3910     0.0000     0.0000 ca         1 6FB      -0.310600
      3 C6           2.1340     0.0000     1.2030 ca         1 6FB       0.503200
      4 N1           3.4460    -0.0000     1.1250 nb         1 6FB      -0.754000
      5 C7           4.0900     0.0010    -0.0400 ca         1 6FB       0.941900
      6 C8           2.1370     0.0010    -1.2640 ca         1 6FB       0.454600
      7 N2           5.4720     0.0010    -0.0250 nv         1 6FB      -1.063500
      8 C9           1.4570     0.0000    -2.4790 ca         1 6FB      -0.168300
      9 C10          0.0650     0.0000    -2.4810 ca         1 6FB       0.004000
     10 N3           3.4800     0.0010    -1.2070 nb         1 6FB      -0.736000
     11 C           -0.6810    -0.0010    -3.6810 ca         1 6FB      -0.242300
     12 C3          -0.6810    -0.0060    -1.2160 ca         1 6FB      -0.187300
     13 C2          -2.0890    -0.0060    -1.2800 ca         1 6FB       0.459200
     14 N           -2.6860    -0.0010    -2.4460 nb         1 6FB      -0.699000
     15 C1          -2.0370    -0.0010    -3.6030 ca         1 6FB       0.423200
     16 H1          -0.5420    -0.1570     0.9250 ha         1 6FB       0.141000
     17 H2           1.6350    -0.0010     2.1640 h4         1 6FB       0.032100
     18 H3           5.9730     0.8680    -0.0250 hn         1 6FB       0.445800
     19 H4           5.9730    -0.8660    -0.0260 hn         1 6FB       0.445800
     20 H5           2.0000     0.1490    -3.4050 ha         1 6FB       0.160000
     21 H6          -0.1820    -0.0010    -4.6430 ha         1 6FB       0.146000
     22 H7          -2.6750    -0.0060    -0.3690 h4         1 6FB       0.028100
     23 H8          -2.6110     0.0030    -4.5220 h4         1 6FB       0.022100
@<TRIPOS>BOND
     1    15    11 ar
     2    15    14 ar
     3    11     9 ar
     4    14    13 ar
     5     9     8 ar
     6     9    12 ar
     7     8     6 ar
     8    13    12 ar
     9    12     1 ar
    10     6    10 ar
    11     6     2 ar
    12    10     5 ar
    13     1     2 ar
    14     2     3 ar
    15     5     7 1
    16     5     4 ar
    17     3     4 ar
    18     1    16 1
    19     3    17 1
    20     7    18 1
    21     7    19 1
    22     8    20 1
    23    11    21 1
    24    13    22 1
    25    15    23 1
@<TRIPOS>SUBSTRUCTURE
     1 6FB         1 TEMP              0 ****  ****    0 ROOT
