@<TRIPOS>MOLECULE
6FD
   25    27     1     0     0
SMALL
bcc


@<TRIPOS>ATOM
      1 C4           0.0000     0.0000     0.0000 ca         1 6FD      -0.119000
      2 C5           1.3930     0.0000     0.0000 ca         1 6FD      -0.219600
      3 C6           2.1350     0.0000     1.2030 ca         1 6FD       0.447200
      4 N1           3.4470    -0.0000     1.1260 nb         1 6FD      -0.612000
      5 C7           4.0910    -0.0020    -0.0400 ca         1 6FD       0.680900
      6 C8           2.1380    -0.0020    -1.2630 ca         1 6FD       0.310600
      7 N2           5.4750    -0.0040    -0.0250 nv         1 6FD      -0.640500
      8 C9           1.4540    -0.0040    -2.4830 ca         1 6FD       0.026300
      9 C10          0.0550    -0.0030    -2.4800 ca         1 6FD      -0.097000
     10 N3           3.4800    -0.0030    -1.2070 nb         1 6FD      -0.605000
     11 N4           2.1560    -0.0050    -3.6860 nv         1 6FD      -0.383200
     12 C           -0.6940    -0.0050    -3.6760 ca         1 6FD      -0.193300
     13 C3          -0.6850    -0.0070    -1.2130 ca         1 6FD      -0.104300
     14 C2          -2.0940    -0.0060    -1.2710 ca         1 6FD       0.411200
     15 N           -2.6960    -0.0030    -2.4350 nb         1 6FD      -0.569000
     16 C1          -2.0510    -0.0040    -3.5930 ca         1 6FD       0.378200
     17 H1          -0.5420     0.1460     0.9270 ha         1 6FD       0.117000
     18 H2           1.6350     0.0020     2.1640 h4         1 6FD      -0.012900
     19 H3           5.9770     0.8620    -0.0170 hn         1 6FD       0.276800
     20 H4           5.9740    -0.8710    -0.0150 hn         1 6FD       0.276800
     21 H5           1.6600    -0.0060    -4.5550 hn         1 6FD       0.279800
     22 H6           3.1570    -0.0050    -3.6810 hn         1 6FD       0.279800
     23 H7          -0.1980    -0.0060    -4.6400 ha         1 6FD       0.109000
     24 H8          -2.6760    -0.0050    -0.3570 h4         1 6FD      -0.015900
     25 H9          -2.6290    -0.0010    -4.5100 h4         1 6FD      -0.022900
@<TRIPOS>BOND
     1     1     2 ar  
     2     1    13 ar  
     3     1    17 1   
     4     2     3 ar  
     5     2     6 ar  
     6     3     4 ar  
     7     3    18 1   
     8     4     5 ar  
     9     5     7 1   
    10     5    10 ar  
    11     6     8 ar  
    12     6    10 ar  
    13     7    19 1   
    14     7    20 1   
    15     8     9 ar  
    16     8    11 1   
    17     9    12 ar  
    18     9    13 ar  
    19    11    21 1   
    20    11    22 1   
    21    12    16 ar  
    22    12    23 1   
    23    13    14 ar  
    24    14    15 ar  
    25    14    24 1   
    26    15    16 ar  
    27    16    25 1   
@<TRIPOS>SUBSTRUCTURE
     1 6FD         1 TEMP              0 ****  ****    0 ROOT
