@<TRIPOS>MOLECULE
6FF
   48    50     1     0     0
SMALL
bcc


@<TRIPOS>ATOM
      1 C1           0.0000     0.0000     0.0000 ca         1 6FF       0.294100
      2 C2           1.3870     0.0000     0.0000 ca         1 6FF      -0.326000
      3 C3           2.0800     0.0000     1.1980 ca         1 6FF       0.270100
      4 C9           2.1100    -0.0020     3.6920 cc         1 6FF       0.310500
      5 C12          2.5290     0.0660     5.8640 c          1 6FF       0.542500
      6 C14          0.1710     0.2390     5.2210 ca         1 6FF      -0.139400
      7 C15         -0.6100    -0.8940     5.4140 ca         1 6FF       0.124900
      8 C16         -1.9590    -0.7630     5.6870 ca         1 6FF      -0.107000
      9 C19         -0.4060     1.4980     5.3060 ca         1 6FF      -0.060000
     10 C27         -4.8840     3.9110     2.6510 c3         1 6FF       0.011900
     11 C4           1.3770    -0.0010     2.4090 ca         1 6FF      -0.203900
     12 C5          -0.0190    -0.0020     2.4000 ca         1 6FF       0.047000
     13 C6          -0.6990     0.0040     1.2010 ca         1 6FF      -0.225500
     14 O7          -0.6770    -0.0000    -1.1770 oh         1 6FF      -0.481100
     15 O8           3.4380    -0.0010     1.1990 oh         1 6FF      -0.436100
     16 N10          3.4030    -0.1020     3.8310 nd         1 6FF      -0.592300
     17 N11          3.6970    -0.0620     5.2010 ns         1 6FF       0.085100
     18 N13          1.5420     0.1110     4.9480 n          1 6FF       0.139500
     19 C17         -2.5300     0.4930     5.7720 ca         1 6FF      -0.021000
     20 C18         -1.7540     1.6220     5.5800 ca         1 6FF      -0.106000
     21 O20          2.3920     0.1370     7.0730 o          1 6FF      -0.701500
     22 S21         -2.4610     0.0030     1.1920 sy         1 6FF       1.062200
     23 O22         -2.8570    -1.0140     0.2820 o          1 6FF      -0.589300
     24 O23         -2.8700     0.0320     2.5520 o          1 6FF      -0.589300
     25 N24         -2.9490     1.4400     0.5280 n3         1 6FF      -0.523500
     26 C25         -3.1700     2.6050     1.3860 c3         1 6FF       0.241800
     27 C26         -4.6520     2.6930     1.7550 c3         1 6FF      -0.059400
     28 C28         -3.1570     1.5450    -0.9190 c3         1 6FF       0.260100
     29 F29         -0.0520    -2.1230     5.3310 f          1 6FF      -0.121900
     30 H1           1.9280    -0.0010    -0.9380 ha         1 6FF       0.126000
     31 H2          -2.5690    -1.6460     5.8380 ha         1 6FF       0.125000
     32 H3           0.2000     2.3830     5.1560 ha         1 6FF       0.114000
     33 H4          -5.9130     4.2360     2.5600 hc         1 6FF       0.000033
     34 H5          -4.2240     4.7140     2.3470 hc         1 6FF       0.000033
     35 H6          -4.6790     3.6450     3.6810 hc         1 6FF       0.000033
     36 H7          -0.5670    -0.0010     3.3340 ha         1 6FF       0.158000
     37 H8          -0.2200    -0.5370    -1.8030 ho         1 6FF       0.420000
     38 H9           3.7530    -0.3820     0.3960 ho         1 6FF       0.402000
     39 H10          4.6070    -0.1200     5.6120 hn         1 6FF       0.223500
     40 H11         -3.5870     0.5930     5.9860 ha         1 6FF       0.109000
     41 H12         -2.2040     2.6050     5.6460 ha         1 6FF       0.109000
     42 H13         -2.5790     2.5070     2.2880 h1         1 6FF       0.015700
     43 H14         -2.8760     3.5040     0.8570 h1         1 6FF       0.015700
     44 H15         -4.9470     1.7950     2.2830 hc         1 6FF       0.025200
     45 H16         -5.2440     2.7920     0.8520 hc         1 6FF       0.025200
     46 H17         -2.3500     2.1180    -1.3600 h1         1 6FF       0.009367
     47 H18         -3.1750     0.5530    -1.3540 h1         1 6FF       0.009367
     48 H19         -4.1000     2.0410    -1.1130 h1         1 6FF       0.009367
@<TRIPOS>BOND
     1     1     2 ar  
     2     1    13 ar  
     3     1    14 1   
     4     2     3 ar  
     5     2    30 1   
     6     3    11 ar  
     7     3    15 1   
     8     4    11 1   
     9     4    16 2   
    10     4    18 1   
    11     5    17 1   
    12     5    18 1   
    13     5    21 2   
    14     6     7 ar  
    15     6     9 ar  
    16     6    18 1   
    17     7     8 ar  
    18     7    29 1   
    19     8    19 ar  
    20     8    31 1   
    21     9    20 ar  
    22     9    32 1   
    23    10    27 1   
    24    10    33 1   
    25    10    34 1   
    26    10    35 1   
    27    11    12 ar  
    28    12    13 ar  
    29    12    36 1   
    30    13    22 1   
    31    14    37 1   
    32    15    38 1   
    33    16    17 1   
    34    17    39 1   
    35    19    20 ar  
    36    19    40 1   
    37    20    41 1   
    38    22    23 2   
    39    22    24 2   
    40    22    25 1   
    41    25    26 1   
    42    25    28 1   
    43    26    27 1   
    44    26    42 1   
    45    26    43 1   
    46    27    44 1   
    47    27    45 1   
    48    28    46 1   
    49    28    47 1   
    50    28    48 1   
@<TRIPOS>SUBSTRUCTURE
     1 6FF         1 TEMP              0 ****  ****    0 ROOT
