@<TRIPOS>MOLECULE
molecule
   28    27     1     0     0
SMALL
bcc


@<TRIPOS>ATOM
      1 CAA          0.0000     0.0000     0.0000 c3         1 6FH      -0.092100
      2 CAB          1.5300     0.0000     0.0000 c3         1 6FH      -0.080400
      3 CAC          2.0390     0.0000     1.4430 c3         1 6FH      -0.075700
      4 CAD          1.6350     1.3090     2.1260 c3         1 6FH      -0.087100
      5 CAE          3.5640    -0.1260     1.4440 c3         1 6FH      -0.077400
      6 CAF          4.0640    -0.2510     2.8860 c3         1 6FH      -0.090400
      7 CAG          5.5890    -0.3780     2.8880 c3         1 6FH      -0.063400
      8 CAH          6.0890    -0.5030     4.3290 c3         1 6FH      -0.182400
      9 CAI          7.5900    -0.6270     4.3300 c          1 6FH       0.891600
     10 OAJ          8.1980    -0.6170     3.2860 o          1 6FH      -0.858300
     11 H1          -0.3610    -0.3820    -0.9470 hc         1 6FH       0.027033
     12 H2          -0.3610    -0.6290     0.8050 hc         1 6FH       0.027033
     13 H3          -0.3610     1.0110     0.1420 hc         1 6FH       0.027033
     14 H4           1.8920    -0.8850    -0.5100 hc         1 6FH       0.038700
     15 H5           1.8920     0.8840    -0.5110 hc         1 6FH       0.038700
     16 H6           1.6070    -0.8360     1.9790 hc         1 6FH       0.046700
     17 H7           2.1450     2.1370     1.6490 hc         1 6FH       0.030700
     18 H8           0.5640     1.4460     2.0400 hc         1 6FH       0.030700
     19 H9           1.9110     1.2700     3.1730 hc         1 6FH       0.030700
     20 H10          4.0000     0.7540     0.9860 hc         1 6FH       0.039200
     21 H11          3.8550    -1.0060     0.8840 hc         1 6FH       0.039200
     22 H12          3.6280    -1.1310     3.3440 hc         1 6FH       0.029700
     23 H13          3.7740     0.6290     3.4470 hc         1 6FH       0.029700
     24 H14          6.0250     0.5010     2.4290 hc         1 6FH       0.044700
     25 H15          5.8780    -1.2590     2.3280 hc         1 6FH       0.044700
     26 H16          5.7990     0.3780     4.8890 hc         1 6FH       0.026700
     27 H17          5.6530    -1.3820     4.7870 hc         1 6FH       0.026700
     28 O1           8.2510    -0.7490     5.4920 o          1 6FH      -0.858300
@<TRIPOS>BOND
     1     6     7 1   
     2     6     5 1   
     3     2     1 1   
     4     2     3 1   
     5     7     8 1   
     6     5     3 1   
     7     8     9 1   
     8     3     4 1   
     9     9    10 1   
    10     1    11 1   
    11     1    12 1   
    12     1    13 1   
    13     2    14 1   
    14     2    15 1   
    15     3    16 1   
    16     4    17 1   
    17     4    18 1   
    18     4    19 1   
    19     5    20 1   
    20     5    21 1   
    21     6    22 1   
    22     6    23 1   
    23     7    24 1   
    24     7    25 1   
    25     8    26 1   
    26     8    27 1   
    27     9    28 1   
@<TRIPOS>SUBSTRUCTURE
     1 6FH         1 TEMP              0 ****  ****    0 ROOT
