@<TRIPOS>MOLECULE
molecule
   44    46     1     0     0
SMALL
bcc


@<TRIPOS>ATOM
      1 C4           0.0000     0.0000     0.0000 ca         1 6FN       0.478800
      2 N3           1.3300     0.0000     0.0000 nb         1 6FN      -0.841000
      3 C2           2.0010     0.0000     1.1350 ca         1 6FN       0.806200
      4 F32          3.3510     0.0000     1.0940 f          1 6FN      -0.244200
      5 N1           1.4010     0.0010     2.3140 nb         1 6FN      -0.800000
      6 C6           0.0750     0.0010     2.4100 ca         1 6FN       0.636200
      7 N6          -0.5450     0.0010     3.6480 nv         1 6FN      -1.054500
      8 C5          -0.6830    -0.0060     1.2260 ca         1 6FN      -0.170200
      9 N7          -2.0090    -0.0080     0.9450 nc         1 6FN      -0.615100
     10 C8          -2.1780    -0.0160    -0.3440 cd         1 6FN       0.404700
     11 N9          -0.9670     0.0010    -0.9720 na         1 6FN      -0.243000
     12 C1'         -0.7410     0.0010    -2.4200 c3         1 6FN       0.256800
     13 C2'         -0.5320    -1.4440    -2.9400 c3         1 6FN      -0.156400
     14 C3'         -0.9490    -1.3180    -4.4260 c3         1 6FN       0.111100
     15 O3'          0.2030    -1.1550    -5.2560 oh         1 6FN      -0.589800
     16 C4'         -1.8260    -0.0510    -4.4660 c3         1 6FN       0.224900
     17 C33         -1.2010     0.9640    -5.3290 c1         1 6FN      -0.085100
     18 C34         -0.6920     1.7580    -6.0280 c1         1 6FN      -0.167500
     19 O4'         -1.9250     0.4420    -3.1190 os         1 6FN      -0.359600
     20 C5'         -3.2180    -0.3990    -4.9960 c3         1 6FN       0.249400
     21 O5'         -3.9860     0.7970    -5.1400 os         1 6FN      -0.580200
     22 PA          -5.5040     0.8060    -5.6760 p5         1 6FN       1.443800
     23 O3A         -6.0090     2.3270    -5.8330 os         1 6FN      -0.724800
     24 PB          -7.2540     3.0210    -6.5800 p5         1 6FN       1.524800
     25 O3B         -7.4310     4.5280    -6.0450 os         1 6FN      -0.734800
     26 PG          -8.6470     5.5830    -6.0520 p5         1 6FN       1.344900
     27 O3G         -9.3600     5.5050    -7.3470 o          1 6FN      -0.813833
     28 O2G         -9.6670     5.2340    -4.8560 o          1 6FN      -0.813833
     29 O1G         -8.0680     7.0710    -5.8470 o          1 6FN      -0.813833
     30 O2B         -6.9820     3.0440    -8.1670 o          1 6FN      -0.875000
     31 O1B         -8.4880     2.2510    -6.3030 o          1 6FN      -0.875000
     32 O2A         -5.5660     0.1280    -6.9900 o          1 6FN      -0.853500
     33 O1A         -6.4490     0.0320    -4.6270 o          1 6FN      -0.853500
     34 H1          -0.7510     0.8680     4.1030 hn         1 6FN       0.409300
     35 H2          -0.7470    -0.8650     4.1060 hn         1 6FN       0.409300
     36 H3          -3.1930     0.0150    -0.7210 h5         1 6FN       0.110800
     37 H4           0.1070     0.6230    -2.6800 h2         1 6FN       0.084700
     38 H5          -1.1800    -2.1380    -2.4170 hc         1 6FN       0.060200
     39 H6           0.5080    -1.7370    -2.8550 hc         1 6FN       0.060200
     40 H7          -1.5240    -2.1840    -4.7310 h1         1 6FN       0.051700
     41 H8           0.4160    -1.9780    -5.6630 ho         1 6FN       0.381000
     42 H9          -0.4310     2.6110    -6.6440 ha         1 6FN       0.151500
     43 H10         -3.1260    -0.8860    -5.9590 h1         1 6FN       0.032700
     44 H11         -3.7140    -1.0650    -4.3010 h1         1 6FN       0.032700
@<TRIPOS>BOND
     1     7     6 1
     2     5     6 ar
     3     5     3 ar
     4     6     8 ar
     5     4     3 1
     6     3     2 ar
     7     8     9 1
     8     8     1 ar
     9     9    10 2
    10     2     1 ar
    11     1    11 1
    12    10    11 1
    13    11    12 1
    14    32    22 1
    15    27    26 1
    16    23    22 1
    17    23    24 1
    18    12    13 1
    19    12    19 1
    20    13    14 1
    21    22    21 1
    22    22    33 1
    23    21    20 1
    24    25    26 1
    25    25    24 1
    26    19    16 1
    27    26    29 1
    28    26    28 1
    29    14    16 1
    30    14    15 1
    31    24    31 1
    32    24    30 1
    33    16    20 1
    34    16    17 1
    35    17    18 3
    36     7    34 1
    37     7    35 1
    38    10    36 1
    39    12    37 1
    40    13    38 1
    41    13    39 1
    42    14    40 1
    43    15    41 1
    44    18    42 1
    45    20    43 1
    46    20    44 1
@<TRIPOS>SUBSTRUCTURE
     1 6FN         1 TEMP              0 ****  ****    0 ROOT
