@<TRIPOS>MOLECULE
6FP
   20    21     1     0     0
SMALL
bcc


@<TRIPOS>ATOM
      1 O9           0.0000     0.0000     0.0000 o          1 6FP      -0.499100
      2 C9           1.2130     0.0000     0.0000 c          1 6FP       0.554400
      3 C6           1.9480     0.0000     1.2740 ca         1 6FP       0.190500
      4 N5           3.2790     0.0010     1.2710 nb         1 6FP      -0.414000
      5 C4A          3.9330     0.0010     2.4160 ca         1 6FP       0.204500
      6 C4           5.4080     0.0010     2.4670 c          1 6FP       0.501000
      7 O4           6.0750     0.0020     1.4500 o          1 6FP      -0.531500
      8 N3           5.9900     0.0010     3.6890 ns         1 6FP      -0.016400
      9 C2           5.2260     0.0010     4.8180 cc         1 6FP       0.037800
     10 N2           5.8580    -0.0000     6.0310 nz         1 6FP       0.198400
     11 N1           3.9150    -0.0000     4.7980 nd         1 6FP      -0.438700
     12 C8A          3.2240     0.0010     3.6460 ca         1 6FP       0.405000
     13 N8           1.8890    -0.0000     3.6360 nb         1 6FP      -0.482000
     14 C7           1.2440     0.0060     2.4890 ca         1 6FP       0.382900
     15 H2           1.7540     0.0010    -0.9380 h4         1 6FP       0.005200
     16 H4           6.9880     0.0010     3.7640 hn         1 6FP       0.194500
     17 H5           6.4320     0.8160     6.1090 hn         1 6FP       0.225467
     18 H6           6.4300    -0.8180     6.1090 hn         1 6FP       0.225467
     19 H7           0.1610     0.0160     2.4820 h4         1 6FP       0.033100
     20 H23          5.1750     0.0010     6.7630 hn         1 6FP       0.225467
@<TRIPOS>BOND
     1     1     2 2   
     2     2     3 1   
     3     2    15 1   
     4     3     4 ar  
     5     3    14 ar  
     6     4     5 ar  
     7     5     6 1   
     8     5    12 ar  
     9     6     7 2   
    10     6     8 1   
    11     8     9 1   
    12     8    16 1   
    13     9    10 1   
    14     9    11 2   
    15    10    17 1   
    16    10    18 1   
    17    10    20 1   
    18    11    12 1   
    19    12    13 ar  
    20    13    14 ar  
    21    14    19 1   
@<TRIPOS>SUBSTRUCTURE
     1 6FP         1 TEMP              0 ****  ****    0 ROOT
