@<TRIPOS>MOLECULE
molecule
   20    21     1     0     0
SMALL
bcc


@<TRIPOS>ATOM
      1 O9           0.0000     0.0000     0.0000 o          1 6FP      -0.467100
      2 C9           1.2130     0.0000     0.0000 c          1 6FP       0.477400
      3 C6           1.9480     0.0000     1.2740 ca         1 6FP       0.246500
      4 N5           3.2790     0.0010     1.2710 nb         1 6FP      -0.552000
      5 C4A          3.9330     0.0010     2.4160 ca         1 6FP       0.244500
      6 C4           5.4080     0.0010     2.4670 c          1 6FP       0.606000
      7 O4           6.0750     0.0020     1.4500 o          1 6FP      -0.490500
      8 N3           5.9900     0.0010     3.6890 ns         1 6FP      -0.480400
      9 C2           5.2260     0.0010     4.8180 cc         1 6FP       0.507800
     10 N2           5.8580    -0.0000     6.0310 nz         1 6FP      -0.741600
     11 N1           3.9150    -0.0000     4.7980 nd         1 6FP      -0.626700
     12 C8A          3.2240     0.0010     3.6460 ca         1 6FP       0.531000
     13 N8           1.8890    -0.0000     3.6360 nb         1 6FP      -0.602000
     14 C7           1.2440     0.0060     2.4890 ca         1 6FP       0.397900
     15 H2           1.7540     0.0010    -0.9380 h4         1 6FP       0.055200
     16 H4           6.9880     0.0010     3.7640 hn         1 6FP       0.353500
     17 H5           6.4320     0.8160     6.1090 hn         1 6FP       0.485467
     18 H6           6.4300    -0.8180     6.1090 hn         1 6FP       0.485467
     19 H7           0.1610     0.0160     2.4820 h4         1 6FP       0.088100
     20 H23          5.1750     0.0010     6.7630 hn         1 6FP       0.485467
@<TRIPOS>BOND
     1    10     9 1
     2     9    11 2
     3     9     8 1
     4    11    12 1
     5     8     6 1
     6    12    13 ar
     7    12     5 ar
     8    13    14 ar
     9     6     5 1
    10     6     7 2
    11     5     4 ar
    12    14     3 ar
    13     4     3 ar
    14     3     2 1
    15     2     1 2
    16     2    15 1
    17     8    16 1
    18    10    17 1
    19    10    18 1
    20    14    19 1
    21    20    10 1
@<TRIPOS>SUBSTRUCTURE
     1 6FP         1 TEMP              0 ****  ****    0 ROOT
