@<TRIPOS>MOLECULE
molecule
   39    43     1     0     0
SMALL
bcc


@<TRIPOS>ATOM
      1 N1           0.0000     0.0000     0.0000 ns         1 6FQ      -0.589500
      2 N3           1.7610    -0.0100     3.7450 na         1 6FQ      -0.028200
      3 C4           2.0260     0.0000     1.3110 cc         1 6FQ      -0.264600
      4 C5           3.3990    -0.0040     1.4350 cd         1 6FQ       0.037000
      5 C6           3.1370     0.0010     3.8710 ca         1 6FQ       0.075700
      6 C7           3.9680    -0.0190     2.7310 ca         1 6FQ      -0.113000
      7 C8           5.3650    -0.0240     2.8840 ca         1 6FQ      -0.071000
      8 C10          5.0970     0.0110     5.2670 ca         1 6FQ       0.088000
      9 C13          0.9580    -0.0190     4.8900 ca         1 6FQ       0.015800
     10 C15         -0.2450     1.1750     6.5930 ca         1 6FQ      -0.152000
     11 C17         -0.2350    -1.2300     6.5920 ca         1 6FQ      -0.124500
     12 C1           1.3540     0.0000     0.0000 c          1 6FQ       0.728100
     13 C2          -0.6930     0.0010     1.1480 c          1 6FQ       0.852900
     14 N2          -0.1360    -0.0050     2.3550 nd         1 6FQ      -0.451400
     15 C3           1.1820    -0.0090     2.5100 cc         1 6FQ       0.200700
     16 C9           3.7130     0.0010     5.1370 ca         1 6FQ      -0.147000
     17 C11          5.9160    -0.0370     4.1280 ca         1 6FQ      -0.139000
     18 C12          5.6910     0.0130     6.5700 cg         1 6FQ       0.226800
     19 N4           6.1600     0.0330     7.6050 n1         1 6FQ      -0.329800
     20 O1          -1.9100     0.0050     1.0800 o          1 6FQ      -0.605500
     21 O2           1.9880    -0.0000    -1.0380 o          1 6FQ      -0.610500
     22 C14          0.5480     1.1800     5.4610 ca         1 6FQ      -0.099000
     23 C16         -0.6350    -0.0210     7.1630 ca         1 6FQ      -0.110000
     24 C18          0.5660    -1.2260     5.4520 ca         1 6FQ      -0.064000
     25 C19         -0.6520    -2.5120     7.2020 cc         1 6FQ       0.492000
     26 N5          -1.4240    -2.6670     8.3050 na         1 6FQ      -0.186400
     27 N6          -0.3480    -3.7180     6.7710 nd         1 6FQ      -0.414000
     28 N7          -0.8710    -4.6120     7.5300 nd         1 6FQ       0.004000
     29 N8          -1.5390    -4.0570     8.4830 nc         1 6FQ      -0.228800
     30 H1          -0.5410     0.0650    -0.8400 hn         1 6FQ       0.355500
     31 H2           3.8450     0.3000     0.4950 ha         1 6FQ       0.182000
     32 H3           6.0320     0.0520     2.0340 ha         1 6FQ       0.154000
     33 H4          -0.5050     2.1090     7.0760 ha         1 6FQ       0.146000
     34 H6           2.9340    -0.3890     5.7810 ha         1 6FQ       0.170000
     35 H7           6.9640     0.1600     3.9390 ha         1 6FQ       0.161000
     36 H8           0.4810     2.2320     5.2120 ha         1 6FQ       0.167000
     37 H9          -0.9160     0.2120     8.1830 ha         1 6FQ       0.143000
     38 H10          0.8040    -2.2360     5.1400 ha         1 6FQ       0.184000
     39 H11         -2.1090    -2.1290     8.7990 hn         1 6FQ       0.344700
@<TRIPOS>BOND
     1    21    12 2
     2    12     1 1
     3    12     3 1
     4     1    13 1
     5     3     4 2
     6     3    15 1
     7     4     6 1
     8    20    13 2
     9    13    14 1
    10    15    14 2
    11    15     2 1
    12     6     7 ar
    13     6     5 ar
    14     7    17 ar
    15     2     5 1
    16     2     9 1
    17     5    16 ar
    18    17     8 ar
    19    22     9 ar
    20    22    10 ar
    21    16     8 ar
    22     9    24 ar
    23     8    18 1
    24    10    23 ar
    25    18    19 3
    26    24    11 ar
    27    23    11 ar
    28    11    25 1
    29    25    27 2
    30    25    26 1
    31    27    28 1
    32    26    29 1
    33    28    29 2
    34     1    30 1
    35     4    31 1
    36     7    32 1
    37    10    33 1
    38    16    34 1
    39    17    35 1
    40    22    36 1
    41    23    37 1
    42    24    38 1
    43    26    39 1
@<TRIPOS>SUBSTRUCTURE
     1 6FQ         1 TEMP              0 ****  ****    0 ROOT
