@<TRIPOS>MOLECULE
6FR
   36    37     1     0     0
SMALL
bcc


@<TRIPOS>ATOM
      1 O1           0.0000     0.0000     0.0000 o          1 6FR      -0.581800
      2 C3           1.1620     5.9090    -1.8640 c3         1 6FR      -0.022900
      3 C5           1.7380     2.6590    -0.5610 c3         1 6FR       0.009600
      4 C7           3.0850    -2.1750    -0.5080 c3         1 6FR       0.254800
      5 C8           3.2680    -3.0280    -1.7890 c3         1 6FR      -0.038400
      6 C9           1.8030    -3.4280    -2.1080 c3         1 6FR      -0.038400
      7 S            1.4210     0.0000     0.0000 s6         1 6FR       0.984900
      8 O            2.1530     0.0000     1.2170 o          1 6FR      -0.581800
      9 N            1.8300    -1.4320    -0.7230 n3         1 6FR      -0.570500
     10 C10          1.0030    -2.1770    -1.6890 c3         1 6FR       0.254800
     11 C6           2.0570     1.2740    -1.1240 c3         1 6FR      -0.020600
     12 C1           2.2740     3.7320    -1.5090 c3         1 6FR      -0.052700
     13 C2           2.0710     5.1280    -0.8940 c3         1 6FR      -0.025900
     14 C4           1.3700     5.2100    -3.2300 c3         1 6FR      -0.022900
     15 C            1.4790     3.7160    -2.8370 c3         1 6FR      -0.025900
     16 H2           0.1260     5.8330    -1.5550 hc         1 6FR       0.015200
     17 H3           2.2050     2.7690     0.4110 hc         1 6FR       0.030700
     18 H4           0.6650     2.7690    -0.4600 hc         1 6FR       0.030700
     19 H5           3.9140    -1.4870    -0.3940 h1         1 6FR       0.010950
     20 H6           2.9970    -2.8170     0.3600 h1         1 6FR       0.010950
     21 H7           3.8720    -3.9040    -1.5870 hc         1 6FR       0.020700
     22 H8           3.6890    -2.4340    -2.5910 hc         1 6FR       0.020700
     23 H9           1.5050    -4.2870    -1.5190 hc         1 6FR       0.020700
     24 H10          1.6820    -3.6200    -3.1680 hc         1 6FR       0.020700
     25 H11          0.0720    -2.4750    -1.2220 h1         1 6FR       0.010950
     26 H12          0.8050    -1.5590    -2.5570 h1         1 6FR       0.010950
     27 H13          3.1300     1.1630    -1.2250 h1         1 6FR       0.067700
     28 H14          1.5910     1.1630    -2.0960 h1         1 6FR       0.067700
     29 H15          3.3260     3.5660    -1.7080 hc         1 6FR       0.027700
     30 H16          1.5910     5.0400     0.0730 hc         1 6FR       0.016700
     31 H17          3.0260     5.6320    -0.7960 hc         1 6FR       0.016700
     32 H18          2.2860     5.5490    -3.6980 hc         1 6FR       0.015200
     33 H19          0.5160     5.3730    -3.8770 hc         1 6FR       0.015200
     34 H20          2.0210     3.1650    -3.5960 hc         1 6FR       0.016700
     35 H21          0.4930     3.2930    -2.6820 hc         1 6FR       0.016700
     36 H1           1.4720     6.9460    -1.9200 hc         1 6FR       0.015200
@<TRIPOS>BOND
     1     1     7 2   
     2     2    13 1   
     3     2    14 1   
     4     2    16 1   
     5     2    36 1   
     6     3    11 1   
     7     3    12 1   
     8     3    17 1   
     9     3    18 1   
    10     4     5 1   
    11     4     9 1   
    12     4    19 1   
    13     4    20 1   
    14     5     6 1   
    15     5    21 1   
    16     5    22 1   
    17     6    10 1   
    18     6    23 1   
    19     6    24 1   
    20     7     8 2   
    21     7     9 1   
    22     7    11 1   
    23     9    10 1   
    24    10    25 1   
    25    10    26 1   
    26    11    27 1   
    27    11    28 1   
    28    12    13 1   
    29    12    15 1   
    30    12    29 1   
    31    13    30 1   
    32    13    31 1   
    33    14    15 1   
    34    14    32 1   
    35    14    33 1   
    36    15    34 1   
    37    15    35 1   
@<TRIPOS>SUBSTRUCTURE
     1 6FR         1 TEMP              0 ****  ****    0 ROOT
