@<TRIPOS>MOLECULE
molecule
   55    56     1     0     0
SMALL
bcc


@<TRIPOS>ATOM
      1 C1           0.0000     0.0000     0.0000 ca         1 6FS      -0.325500
      2 C2           1.3850     0.0000     0.0000 ca         1 6FS       0.226100
      3 C3           2.0810     0.0000     1.2150 ca         1 6FS      -0.178800
      4 C5          -0.0130    -0.0040     2.4070 ca         1 6FS      -0.325500
      5 C6          -0.6970     0.0000     1.2000 ca         1 6FS       0.216100
      6 C7          -2.7110     0.0060     2.4620 c3         1 6FS       0.129700
      7 C8           1.2500     0.0010     4.7960 c3         1 6FS       0.128200
      8 C10          1.2890    -0.0010    -2.3750 c3         1 6FS       0.128200
      9 C11          4.2150     0.8820     1.9660 ce         1 6FS      -0.373100
     10 C12          6.4340     2.4740     1.2350 c3         1 6FS      -0.129300
     11 C13          8.6290     2.1430     0.0790 ca         1 6FS      -0.169000
     12 C14         10.0060     2.2560     0.0280 ca         1 6FS      -0.177000
     13 C15         10.6950     2.8220     1.0870 ca         1 6FS       0.051100
     14 C16          9.9970     3.2790     2.2040 ca         1 6FS       0.211600
     15 C19         12.6980     2.4460    -0.1380 c3         1 6FS       0.135700
     16 C21         10.9230     4.8980     5.4550 c          1 6FS       0.888600
     17 O7          10.4710     5.3980     6.6150 o          1 6FS      -0.842300
     18 S1           5.9780     0.8820     1.9750 sy         1 6FS       1.175900
     19 C18          7.9360     2.5950     1.1870 ca         1 6FS      -0.082300
     20 O8          12.1060     4.9030     5.2150 o          1 6FS      -0.842300
     21 O4           6.3210     0.8570     3.3540 o          1 6FS      -0.621800
     22 O3           2.0650    -0.0010    -1.1750 os         1 6FS      -0.307400
     23 C17          8.6150     3.1610     2.2490 ca         1 6FS      -0.187000
     24 C9           3.5570     0.0010     1.2230 cf         1 6FS       0.060800
     25 O1          -2.0560     0.0060     1.1920 os         1 6FS      -0.327900
     26 C4           1.3710     0.0000     2.4220 ca         1 6FS       0.226100
     27 C20          9.9530     4.3300     4.4510 c3         1 6FS       0.109800
     28 O5           6.3330    -0.1890     1.1110 o          1 6FS      -0.621800
     29 O2           2.0390     0.0010     3.6040 os         1 6FS      -0.307400
     30 H1          -0.5400     0.0020    -0.9390 ha         1 6FS       0.144500
     31 H5          -0.5630    -0.0040     3.3410 ha         1 6FS       0.144500
     32 H72         -2.4200     0.8890     3.0180 h1         1 6FS       0.041700
     33 H71         -3.7840     0.0100     2.3140 h1         1 6FS       0.041700
     34 H73         -2.4260    -0.8800     3.0150 h1         1 6FS       0.041700
     35 H82          1.9020     0.0030     5.6610 h1         1 6FS       0.043200
     36 H81          0.6260    -0.8840     4.8160 h1         1 6FS       0.043200
     37 H83          0.6240     0.8850     4.8150 h1         1 6FS       0.043200
     38 H10          1.9500    -0.0020    -3.2330 h1         1 6FS       0.043200
     39 H9M          0.6650     0.8840    -2.4010 h1         1 6FS       0.043200
     40 H9L          0.6640    -0.8850    -2.4000 h1         1 6FS       0.043200
     41 H11          3.6700     1.6010     2.5650 h4         1 6FS       0.168000
     42 H9N          6.0350     2.5320     0.2300 h1         1 6FS       0.095200
     43 H12          6.0260     3.2800     1.8330 h1         1 6FS       0.095200
     44 H13          8.0920     1.7000    -0.7500 ha         1 6FS       0.120000
     45 H14         10.5460     1.9010    -0.8410 ha         1 6FS       0.121000
     46 H9P         13.7680     2.5950    -0.0490 h1         1 6FS       0.031033
     47 H19         12.3300     2.9840    -1.0030 h1         1 6FS       0.031033
     48 H9O         12.4890     1.3900    -0.2540 h1         1 6FS       0.031033
     49 H17          8.0690     3.5140     3.1160 ha         1 6FS       0.153000
     50 H9           4.1030    -0.7180     0.6230 ha         1 6FS       0.162000
     51 H9Q          9.2520     5.0990     4.1500 h1         1 6FS       0.035700
     52 H20          9.4120     3.5050     4.8990 h1         1 6FS       0.035700
     53 H15         11.6850     3.9360     3.2440 hn         1 6FS       0.473800
     54 O6          12.0500     2.9340     1.0380 os         1 6FS      -0.322900
     55 N1          10.6880     3.8520     3.2780 nu         1 6FS      -0.773600
@<TRIPOS>BOND
     1    15    54 1   
     2    54    13 1   
     3    55    27 1   
     4    55    14 1   
     5    27    16 1   
     6    13    14 ar  
     7    13    12 ar  
     8    28    18 2   
     9    14    23 ar  
    10    20    16 1   
    11    12    11 ar  
    12    16    17 1   
    13    23    19 ar  
    14    11    19 ar  
    15    19    10 1   
    16    18    10 1   
    17    18    21 2   
    18    18     9 1   
    19     8    22 1   
    20    22     2 1   
    21    24     9 2   
    22    24     3 1   
    23     2     3 ar  
    24     2     1 ar  
    25     3    26 ar  
    26     1     5 ar  
    27    26    29 1   
    28    26     4 ar  
    29    29     7 1   
    30     5     4 ar  
    31     5    25 1   
    32    25     6 1   
    33     1    30 1   
    34     4    31 1   
    35     6    32 1   
    36     6    33 1   
    37     6    34 1   
    38     7    35 1   
    39     7    36 1   
    40     7    37 1   
    41     8    38 1   
    42     8    39 1   
    43     8    40 1   
    44     9    41 1   
    45    10    42 1   
    46    10    43 1   
    47    11    44 1   
    48    12    45 1   
    49    15    46 1   
    50    15    47 1   
    51    15    48 1   
    52    23    49 1   
    53    24    50 1   
    54    27    51 1   
    55    27    52 1   
    56    55    53 1   
@<TRIPOS>SUBSTRUCTURE
     1 6FS         1 TEMP              0 ****  ****    0 ROOT
