@<TRIPOS>MOLECULE
molecule
   44    46     1     0     0
SMALL
bcc


@<TRIPOS>ATOM
      1 O01          0.0000     0.0000     0.0000 o          1 6FT      -0.502100
      2 C02          1.2210     0.0000     0.0000 c          1 6FT       0.537500
      3 C03          1.9790     0.0000     1.2600 cc         1 6FT      -0.242400
      4 C04          1.2860     0.0010     2.5570 c          1 6FT       0.898800
      5 O05         -0.0610     0.0000     2.6020 o          1 6FT      -0.769800
      6 O06          1.9280     0.0010     3.5890 o          1 6FT      -0.769800
      7 C07          3.3600     0.0000     1.1930 cd         1 6FT       0.037000
      8 N08          3.9830    -0.0000     0.0050 na         1 6FT      -0.493200
      9 C09          5.4480    -0.0010    -0.0230 c3         1 6FT       0.256100
     10 C10          5.9500    -1.4220    -0.0330 ca         1 6FT      -0.070300
     11 C11          6.1970    -2.0730     1.1630 ca         1 6FT      -0.107500
     12 C12          6.6570    -3.3740     1.1600 ca         1 6FT      -0.095500
     13 C13          6.8720    -4.0310    -0.0490 cp         1 6FT      -0.095000
     14 C14          7.3660    -5.4310    -0.0580 cp         1 6FT       0.088000
     15 C15          7.6110    -6.0940     1.1430 ca         1 6FT      -0.140000
     16 C16          8.0640    -7.3970     1.1280 ca         1 6FT      -0.026500
     17 C17          8.2770    -8.0460    -0.0750 ca         1 6FT      -0.347500
     18 S18          8.8550    -9.7090    -0.0850 sy         1 6FT       1.172200
     19 O19          9.5170    -9.9120     1.1550 o          1 6FT      -0.550800
     20 N20          7.5230   -10.6920    -0.0720 nz         1 6FT      -0.794500
     21 O21          9.4870    -9.9070    -1.3430 o          1 6FT      -0.550800
     22 C22          8.0350    -7.3920    -1.2700 ca         1 6FT      -0.026500
     23 C23          7.5810    -6.0890    -1.2670 ca         1 6FT      -0.140000
     24 C24          6.6210    -3.3710    -1.2500 ca         1 6FT      -0.095500
     25 C25          6.1560    -2.0720    -1.2350 ca         1 6FT      -0.107500
     26 C26          3.3060    -0.0010    -1.1730 cd         1 6FT       0.025000
     27 C27          1.9550    -0.0070    -1.2160 cc         1 6FT      -0.075100
     28 O28          1.3040    -0.0120    -2.4110 oh         1 6FT      -0.499100
     29 H2           3.9430     0.0000     2.1060 h4         1 6FT       0.172000
     30 H3           5.8260     0.5100     0.8550 h1         1 6FT       0.069200
     31 H4           5.7920     0.5100    -0.9140 h1         1 6FT       0.069200
     32 H5           6.0290    -1.5610     2.1030 ha         1 6FT       0.151000
     33 H6           6.8500    -3.8830     2.0960 ha         1 6FT       0.132500
     34 H7           7.4450    -5.5870     2.0860 ha         1 6FT       0.163000
     35 H8           8.2550    -7.9130     2.0620 ha         1 6FT       0.149000
     36 H9           6.9840   -10.5120     0.7520 hn         1 6FT       0.480467
     37 H10          7.8140   -11.6490    -0.0780 hn         1 6FT       0.480467
     38 H11          8.2030    -7.9040    -2.2090 ha         1 6FT       0.149000
     39 H12          7.3920    -5.5780    -2.2030 ha         1 6FT       0.163000
     40 H13          6.7850    -3.8780    -2.1930 ha         1 6FT       0.132500
     41 H14          5.9610    -1.5580    -2.1680 ha         1 6FT       0.151000
     42 H15          3.8640    -0.0030    -2.1010 h4         1 6FT       0.135000
     43 H16          1.0650    -0.8960    -2.6350 ho         1 6FT       0.406000
     44 H203         6.9660   -10.5100    -0.8830 hn         1 6FT       0.480467
@<TRIPOS>BOND
     1    19    18 2   
     2    21    18 2   
     3    18    20 1   
     4    18    17 1   
     5    16    17 ar  
     6    16    15 ar  
     7    17    22 ar  
     8     1     2 2   
     9    15    14 ar  
    10    28    27 1   
    11     5     4 1   
    12    22    23 ar  
    13     2    27 1   
    14     2     3 1   
    15    27    26 2   
    16    12    11 ar  
    17    12    13 ar  
    18    14    23 ar  
    19    14    13 1   
    20     4     3 1   
    21     4     6 1   
    22     3     7 2   
    23    11    10 ar  
    24    13    24 ar  
    25    26     8 1   
    26     7     8 1   
    27     8     9 1   
    28    10     9 1   
    29    10    25 ar  
    30    24    25 ar  
    31     7    29 1   
    32     9    30 1   
    33     9    31 1   
    34    11    32 1   
    35    12    33 1   
    36    15    34 1   
    37    16    35 1   
    38    20    36 1   
    39    20    37 1   
    40    22    38 1   
    41    23    39 1   
    42    24    40 1   
    43    25    41 1   
    44    26    42 1   
    45    28    43 1   
    46    44    20 1   
@<TRIPOS>SUBSTRUCTURE
     1 6FT         1 TEMP              0 ****  ****    0 ROOT
