@<TRIPOS>MOLECULE
molecule
   35    38     1     0     0
SMALL
bcc


@<TRIPOS>ATOM
      1 N1           0.0000     0.0000     0.0000 ns         1 6FV      -0.589500
      2 N3           1.7600     0.0180     3.7440 na         1 6FV      -0.022200
      3 C4           2.0250     0.0000     1.3110 cc         1 6FV      -0.256600
      4 C5           3.3980     0.0010     1.4360 cd         1 6FV       0.042000
      5 C6           3.1350     0.0190     3.8700 ca         1 6FV       0.089700
      6 C7           3.9670     0.0010     2.7330 ca         1 6FV      -0.122000
      7 C8           5.3650     0.0010     2.8860 ca         1 6FV      -0.062000
      8 C10          5.0950     0.0270     5.2690 ca         1 6FV       0.052000
      9 C13          0.9560     0.0230     4.8890 ca         1 6FV      -0.038200
     10 C15         -0.2430     1.2330     6.5780 ca         1 6FV      -0.148000
     11 C17         -0.2380    -1.1710     6.5930 ca         1 6FV      -0.148000
     12 C1           1.3540     0.0000     0.0000 c          1 6FV       0.725100
     13 C2          -0.6930     0.0050     1.1470 c          1 6FV       0.854900
     14 N2          -0.1370     0.0110     2.3540 nc         1 6FV      -0.449400
     15 C3           1.1800     0.0120     2.5100 cd         1 6FV       0.200700
     16 C9           3.7100     0.0260     5.1380 ca         1 6FV      -0.139000
     17 C11          5.9140     0.0010     4.1310 ca         1 6FV      -0.131000
     18 C12          5.6870     0.0260     6.5720 cg         1 6FV       0.224800
     19 N4           6.1530     0.0060     7.6090 n1         1 6FV      -0.328800
     20 O1          -1.9110     0.0050     1.0790 o          1 6FV      -0.609500
     21 O2           1.9890     0.0000    -1.0370 o          1 6FV      -0.611500
     22 C14          0.5540     1.2290     5.4520 ca         1 6FV      -0.087000
     23 C16         -0.6440     0.0340     7.1490 ca         1 6FV       0.130100
     24 C18          0.5550    -1.1770     5.4630 ca         1 6FV      -0.087000
     25 O3          -1.4280     0.0390     8.2600 oh         1 6FV      -0.521100
     26 H1          -0.5020     0.0000    -0.8660 hn         1 6FV       0.353500
     27 H2           4.0230    -0.0860     0.5540 ha         1 6FV       0.174000
     28 H3           6.0050     0.0100     2.0120 ha         1 6FV       0.153000
     29 H4          -0.5570     2.1730     7.0160 ha         1 6FV       0.152000
     30 H5          -0.5510    -2.1060     7.0390 ha         1 6FV       0.152000
     31 H7           3.0800     0.0390     6.0190 ha         1 6FV       0.169000
     32 H8           6.9910     0.0020     4.2470 ha         1 6FV       0.154000
     33 H9           0.8720     2.1660     5.0100 ha         1 6FV       0.146000
     34 H10          0.8730    -2.1180     5.0300 ha         1 6FV       0.146000
     35 H11         -2.3360     0.0370     8.0030 ho         1 6FV       0.430000
@<TRIPOS>BOND
     1    20    13 2   
     2    13     1 1   
     3    13    14 1   
     4    25    23 1   
     5    10    23 ar  
     6    10    22 ar  
     7     1    12 1   
     8    14    15 2   
     9    23    11 ar  
    10    22     9 ar  
    11    11    24 ar  
    12    12    21 2   
    13    12     3 1   
    14    15     3 1   
    15    15     2 1   
    16     9    24 ar  
    17     9     2 1   
    18     3     4 2   
    19     2     5 1   
    20     4     6 1   
    21     5     6 ar  
    22     5    16 ar  
    23     6     7 ar  
    24    16     8 ar  
    25     7    17 ar  
    26     8    17 ar  
    27     8    18 1   
    28    18    19 3   
    29     1    26 1   
    30     4    27 1   
    31     7    28 1   
    32    10    29 1   
    33    11    30 1   
    34    16    31 1   
    35    17    32 1   
    36    22    33 1   
    37    24    34 1   
    38    25    35 1   
@<TRIPOS>SUBSTRUCTURE
     1 6FV         1 TEMP              0 ****  ****    0 ROOT
