@<TRIPOS>MOLECULE
6FV
   35    38     1     0     0
SMALL
bcc


@<TRIPOS>ATOM
      1 N1           0.0000     0.0000     0.0000 ns         1 6FV      -0.168500
      2 N3           1.7600     0.0180     3.7440 na         1 6FV       0.497800
      3 C4           2.0250     0.0000     1.3110 cc         1 6FV      -0.265600
      4 C5           3.3980     0.0010     1.4360 cd         1 6FV       0.083000
      5 C6           3.1350     0.0190     3.8700 ca         1 6FV      -0.088300
      6 C7           3.9670     0.0010     2.7330 ca         1 6FV      -0.126000
      7 C8           5.3650     0.0010     2.8860 ca         1 6FV      -0.024000
      8 C10          5.0950     0.0270     5.2690 ca         1 6FV       0.102000
      9 C13          0.9560     0.0230     4.8890 ca         1 6FV      -0.224200
     10 C15         -0.2430     1.2330     6.5780 ca         1 6FV      -0.134000
     11 C17         -0.2380    -1.1710     6.5930 ca         1 6FV      -0.134000
     12 C1           1.3540     0.0000     0.0000 c          1 6FV       0.646100
     13 C2          -0.6930     0.0050     1.1470 c          1 6FV       0.732900
     14 N2          -0.1370     0.0110     2.3540 nd         1 6FV      -0.381400
     15 C3           1.1800     0.0120     2.5100 cc         1 6FV      -0.014300
     16 C9           3.7100     0.0260     5.1380 ca         1 6FV      -0.129000
     17 C11          5.9140     0.0010     4.1310 ca         1 6FV      -0.114000
     18 C12          5.6870     0.0260     6.5720 cg         1 6FV       0.210800
     19 N4           6.1530     0.0060     7.6090 n1         1 6FV      -0.347800
     20 O1          -1.9110     0.0050     1.0790 o          1 6FV      -0.657500
     21 O2           1.9890     0.0000    -1.0370 o          1 6FV      -0.653500
     22 C14          0.5540     1.2290     5.4520 ca         1 6FV      -0.038000
     23 C16         -0.6440     0.0340     7.1490 ca         1 6FV       0.162100
     24 C18          0.5550    -1.1770     5.4630 ca         1 6FV      -0.038000
     25 O3          -1.4280     0.0390     8.2600 oh         1 6FV      -0.502100
     26 H1          -0.5020     0.0000    -0.8660 hn         1 6FV       0.204500
     27 H2           4.0230    -0.0860     0.5540 ha         1 6FV       0.136000
     28 H3           6.0050     0.0100     2.0120 ha         1 6FV       0.118000
     29 H4          -0.5570     2.1730     7.0160 ha         1 6FV       0.122500
     30 H5          -0.5510    -2.1060     7.0390 ha         1 6FV       0.122500
     31 H7           3.0800     0.0390     6.0190 ha         1 6FV       0.142000
     32 H8           6.9910     0.0020     4.2470 ha         1 6FV       0.123000
     33 H9           0.8720     2.1660     5.0100 ha         1 6FV       0.112000
     34 H10          0.8730    -2.1180     5.0300 ha         1 6FV       0.112000
     35 H11         -2.3360     0.0370     8.0030 ho         1 6FV       0.414000
@<TRIPOS>BOND
     1     1    12 1   
     2     1    13 1   
     3     1    26 1   
     4     2     5 1   
     5     2     9 1   
     6     2    15 1   
     7     3     4 2   
     8     3    12 1   
     9     3    15 1   
    10     4     6 1   
    11     4    27 1   
    12     5     6 ar  
    13     5    16 ar  
    14     6     7 ar  
    15     7    17 ar  
    16     7    28 1   
    17     8    16 ar  
    18     8    17 ar  
    19     8    18 1   
    20     9    22 ar  
    21     9    24 ar  
    22    10    22 ar  
    23    10    23 ar  
    24    10    29 1   
    25    11    23 ar  
    26    11    24 ar  
    27    11    30 1   
    28    12    21 2   
    29    13    14 1   
    30    13    20 2   
    31    14    15 2   
    32    16    31 1   
    33    17    32 1   
    34    18    19 3   
    35    22    33 1   
    36    23    25 1   
    37    24    34 1   
    38    25    35 1   
@<TRIPOS>SUBSTRUCTURE
     1 6FV         1 TEMP              0 ****  ****    0 ROOT
