@<TRIPOS>MOLECULE
6FW
   47    52     1     0     0
SMALL
bcc


@<TRIPOS>ATOM
      1 C10          0.0000     0.0000     0.0000 c2         1 6FW       0.319000
      2 N12          1.3420     0.0000     0.0000 n2         1 6FW      -0.094000
      3 C13          2.0270     0.0000     1.1240 c2         1 6FW      -0.382000
      4 C17         -2.0830     0.0010     2.9630 c2         1 6FW      -0.360000
      5 C20         -5.3500    -0.9770     2.0560 ca         1 6FW      -0.010000
      6 C21         -6.2700    -0.8530     1.0340 ca         1 6FW      -0.108500
      7 C22         -6.5960     0.4000     0.5420 ca         1 6FW      -0.074000
      8 C24         -5.0840     1.4130     2.1000 ca         1 6FW      -0.010000
      9 Cl1         -7.7530     0.5520    -0.7420 cl         1 6FW       0.100000
     10 P28         -2.5450     1.3890     9.0720 p5         1 6FW       2.171000
     11 C01         -2.6830    -0.9070     7.7270 c3         1 6FW       0.149000
     12 C02         -1.5290    -0.3570     6.9140 c3         1 6FW      -0.084000
     13 C03         -1.8080     1.1370     6.5830 c3         1 6FW       0.018000
     14 C04         -0.7360     1.4050     5.5190 DU         1 6FW       0.126000
     15 C05         -0.4760     0.0020     4.9150 c3         1 6FW      -0.345000
     16 O06         -1.3220    -0.9370     5.6270 os         1 6FW      -0.176000
     17 N07         -0.8200     0.0010     3.4900 na         1 6FW       0.414000
     18 C08          0.0610     0.0000     2.4480 c2         1 6FW      -0.339000
     19 C09         -0.7010    -0.0000     1.2870 c2         1 6FW      -0.177000
     20 O11         -0.6240     0.0050    -1.0500 o          1 6FW      -0.231000
     21 N14          1.4280     0.0000     2.3420 na         1 6FW       0.345000
     22 N15          3.3950     0.0010     1.0610 nz         1 6FW       0.970000
     23 N16         -2.0060     0.0010     1.6550 n2         1 6FW       0.040000
     24 S18         -3.5770     0.0020     3.8960 ss         1 6FW       0.207000
     25 C19         -4.7530     0.1570     2.5930 ca         1 6FW      -0.218000
     26 C23         -5.9980     1.5300     1.0720 ca         1 6FW      -0.108500
     27 O26          0.4520     1.9270     6.1200 oh         1 6FW      -0.227000
     28 O27         -1.6270     1.8560     7.8070 os         1 6FW      -0.550000
     29 O30         -2.6520    -0.2300     9.0070 os         1 6FW      -0.633000
     30 H201        -5.0950    -1.9590     2.4350 ha         1 6FW       0.116500
     31 H211        -6.7420    -1.7300     0.6090 ha         1 6FW       0.127500
     32 H241        -4.5740     2.2980     2.4610 ha         1 6FW       0.116500
     33 H011        -2.7610    -1.9860     7.7920 h1         1 6FW       0.050000
     34 H012        -3.6150    -0.5690     7.2910 h1         1 6FW       0.050000
     35 H021        -0.6210    -0.4480     7.4970 h1         1 6FW       0.124000
     36 H031        -2.8340     1.0990     6.2390 h1         1 6FW       0.098000
     37 H041        -1.1160     2.0800     4.7610 ha         1 6FW       0.066000
     38 H051        -1.4380     0.4010     5.2140 DU         1 6FW       0.265000
     39 H141         1.9350    -0.0210     3.2050 hn         1 6FW       0.090000
     40 H152         3.5130    -0.2750     2.0160 hn         1 6FW       0.020667
     41 H151         3.7720     0.9110     0.8860 hn         1 6FW       0.020667
     42 H231        -6.2960     2.4890     0.6650 ha         1 6FW       0.127500
     43 H261         1.0470     2.1780     5.4330 ho         1 6FW       0.183000
     44 H311        -4.6610     1.3850     9.1520 ho         1 6FW       0.235000
     45 O29         -1.9070     1.8030    10.3420 o          1 6FW      -0.801000
     46 H153         3.7680    -0.6730     0.4210 hn         1 6FW       0.020667
     47 O31         -4.0130     2.0420     8.9570 oh         1 6FW      -0.641000
@<TRIPOS>BOND
     1     1     2 1   
     2     1    19 1   
     3     1    20 1   
     4     2     3 1   
     5     3    21 1   
     6     3    22 1   
     7     4    17 1   
     8     4    23 1   
     9     4    24 1   
    10     5     6 1   
    11     5    25 1   
    12     5    30 1   
    13     6     7 1   
    14     6    31 1   
    15     7     9 1   
    16     7    26 1   
    17     8    25 1   
    18     8    26 1   
    19     8    32 1   
    20    10    28 1   
    21    10    29 1   
    22    10    45 1   
    23    10    47 1   
    24    11    12 1   
    25    11    29 1   
    26    11    33 1   
    27    11    34 1   
    28    12    13 1   
    29    12    16 1   
    30    12    35 1   
    31    13    14 1   
    32    13    28 1   
    33    13    36 1   
    34    14    15 1   
    35    14    27 1   
    36    14    37 1   
    37    14    38 1   
    38    15    16 1   
    39    15    17 1   
    40    15    38 1   
    41    17    18 1   
    42    18    19 1   
    43    18    21 1   
    44    19    23 1   
    45    21    39 1   
    46    22    40 1   
    47    22    41 1   
    48    22    46 1   
    49    24    25 1   
    50    26    42 1   
    51    27    43 1   
    52    44    47 1   
@<TRIPOS>SUBSTRUCTURE
     1 6FW         1 TEMP              0 ****  ****    0 ROOT
