@<TRIPOS>MOLECULE
molecule
   47    51     1     0     0
SMALL
bcc


@<TRIPOS>ATOM
      1 C10          0.0000     0.0000     0.0000 c          1 6FW       0.625000
      2 N12          1.3420     0.0000     0.0000 nc         1 6FW      -0.641100
      3 C13          2.0270     0.0000     1.1240 cd         1 6FW       0.678100
      4 C17         -2.0830     0.0010     2.9630 cc         1 6FW       0.512800
      5 C20         -5.3500    -0.9770     2.0560 ca         1 6FW      -0.046500
      6 C21         -6.2700    -0.8530     1.0340 ca         1 6FW      -0.131000
      7 C22         -6.5960     0.4000     0.5420 ca         1 6FW       0.074400
      8 C24         -5.0840     1.4130     2.1000 ca         1 6FW      -0.046500
      9 Cl1         -7.7530     0.5520    -0.7420 cl         1 6FW      -0.067400
     10 P28         -2.5450     1.3890     9.0720 p5         1 6FW       1.500500
     11 C01         -2.6830    -0.9070     7.7270 c3         1 6FW       0.203400
     12 C02         -1.5290    -0.3570     6.9140 c3         1 6FW      -0.004900
     13 C03         -1.8080     1.1370     6.5830 c3         1 6FW       0.086100
     14 C04         -0.7360     1.4050     5.5190 c3         1 6FW       0.193100
     15 C05         -0.4760     0.0020     4.9150 c3         1 6FW      -0.058200
     16 O06         -1.3220    -0.9370     5.6270 os         1 6FW      -0.347600
     17 N07         -0.8200     0.0010     3.4900 na         1 6FW      -0.167900
     18 C08          0.0610     0.0000     2.4480 cc         1 6FW       0.018000
     19 C09         -0.7010    -0.0000     1.2870 cd         1 6FW       0.267800
     20 O11         -0.6240     0.0050    -1.0500 o          1 6FW      -0.431100
     21 N14          1.4280     0.0000     2.3420 na         1 6FW      -0.667600
     22 N15          3.3950     0.0010     1.0610 nz         1 6FW      -0.737600
     23 N16         -2.0060     0.0010     1.6550 nd         1 6FW      -0.594000
     24 S18         -3.5770     0.0020     3.8960 ss         1 6FW      -0.242200
     25 C19         -4.7530     0.1570     2.5930 ca         1 6FW      -0.026100
     26 C23         -5.9980     1.5300     1.0720 ca         1 6FW      -0.131000
     27 O26          0.4520     1.9270     6.1200 oh         1 6FW      -0.505800
     28 O27         -1.6270     1.8560     7.8070 os         1 6FW      -0.466200
     29 O30         -2.6520    -0.2300     9.0070 os         1 6FW      -0.547200
     30 H201        -5.0950    -1.9590     2.4350 ha         1 6FW       0.148500
     31 H211        -6.7420    -1.7300     0.6090 ha         1 6FW       0.161500
     32 H241        -4.5740     2.2980     2.4610 ha         1 6FW       0.148500
     33 H011        -2.7610    -1.9860     7.7920 h1         1 6FW       0.072200
     34 H012        -3.6150    -0.5690     7.2910 h1         1 6FW       0.072200
     35 H021        -0.6210    -0.4480     7.4970 h1         1 6FW       0.124700
     36 H031        -2.8340     1.0990     6.2390 h1         1 6FW       0.090700
     37 H041        -1.1160     2.0800     4.7610 h1         1 6FW       0.077700
     38 H051        -1.4380     0.4010     5.2140 h2         1 6FW       0.222700
     39 H141         1.9350    -0.0210     3.2050 hn         1 6FW       0.466800
     40 H152         3.5130    -0.2750     2.0160 hn         1 6FW       0.486467
     41 H151         3.7720     0.9110     0.8860 hn         1 6FW       0.486467
     42 H231        -6.2960     2.4890     0.6650 ha         1 6FW       0.161500
     43 H261         1.0470     2.1780     5.4330 ho         1 6FW       0.410000
     44 H311        -4.6610     1.3850     9.1520 ho         1 6FW       0.460000
     45 O29         -1.9070     1.8030    10.3420 o          1 6FW      -0.686300
     46 H153         3.7680    -0.6730     0.4210 hn         1 6FW       0.486467
     47 O31         -4.0130     2.0420     8.9570 oh         1 6FW      -0.690400
@<TRIPOS>BOND
     1    24    25 1   
     2    24     4 1   
     3    25     5 ar  
     4    25     8 ar  
     5     5     6 ar  
     6     8    26 ar  
     7     6     7 ar  
     8    26     7 ar  
     9     7     9 1   
    10     4    23 2   
    11     4    17 1   
    12    23    19 1   
    13    15    16 1   
    14    15    17 1   
    15    15    14 1   
    16    16    12 1   
    17    27    14 1   
    18    17    18 1   
    19    12    11 1   
    20    12    13 1   
    21    14    13 1   
    22    11    29 1   
    23    19    18 2   
    24    19     1 1   
    25    18    21 1   
    26    29    10 1   
    27    13    28 1   
    28    20     1 2   
    29    28    10 1   
    30     1     2 1   
    31    21     3 1   
    32    10    45 2   
    33    10    47 1   
    34     2     3 2   
    35     3    22 1   
    36     5    30 1   
    37     6    31 1   
    38     8    32 1   
    39    11    33 1   
    40    11    34 1   
    41    12    35 1   
    42    13    36 1   
    43    14    37 1   
    44    15    38 1   
    45    21    39 1   
    46    22    40 1   
    47    22    41 1   
    48    26    42 1   
    49    27    43 1   
    50    47    44 1   
    51    46    22 1   
@<TRIPOS>SUBSTRUCTURE
     1 6FW         1 TEMP              0 ****  ****    0 ROOT
