@<TRIPOS>MOLECULE
molecule
   38    37     1     0     0
SMALL
bcc


@<TRIPOS>ATOM
      1 O1           0.0000     0.0000     0.0000 o          1 6FY      -0.778800
      2 C2           1.3420     0.0000     0.0000 c          1 6FY       0.869600
      3 O3           1.9470     0.0000     1.0460 o          1 6FY      -0.778800
      4 C4           2.0950    -0.0000    -1.3050 c3         1 6FY      -0.012500
      5 N5           3.4670     0.4740    -1.0790 nz         1 6FY      -0.789600
      6 C6           2.1330    -1.4200    -1.8730 c3         1 6FY      -0.066400
      7 C7           2.7880    -1.4000    -3.2550 c3         1 6FY      -0.284600
      8 P8           2.8330    -3.0930    -3.9310 p5         1 6FY       1.205300
      9 O9           1.4530    -3.6150    -4.0450 o          1 6FY      -0.755300
     10 O10          3.5220    -3.0710    -5.3870 os         1 6FY      -0.564200
     11 C11          3.7050    -4.2470    -6.1780 c3         1 6FY       0.137100
     12 C12          5.1960    -4.4500    -6.4520 c3         1 6FY      -0.100400
     13 C13          5.9230    -4.7320    -5.1350 c3         1 6FY      -0.098100
     14 C14          2.9700    -4.0920    -7.4850 c          1 6FY       0.633100
     15 O15          2.4270    -3.0410    -7.7550 o          1 6FY      -0.613100
     16 N16          2.9180    -5.1200    -8.3550 ns         1 6FY      -0.545900
     17 C17          2.2040    -4.9700    -9.6250 c3         1 6FY      -0.003000
     18 C18          2.2940    -6.2550   -10.4070 c          1 6FY       0.884600
     19 O19          1.7090    -6.3490   -11.6120 o          1 6FY      -0.843800
     20 O20          2.8930    -7.1990    -9.9500 o          1 6FY      -0.843800
     21 H2           1.5980     0.6560    -2.0090 hx         1 6FY       0.109700
     22 H3           4.0070    -0.2560    -0.6580 hn         1 6FY       0.436133
     23 H4           3.8790     0.7310    -1.9540 hn         1 6FY       0.436133
     24 H6           2.7050    -2.0580    -1.2110 hc         1 6FY       0.094200
     25 H7           1.1220    -1.8020    -1.9570 hc         1 6FY       0.094200
     26 H8           2.2140    -0.7630    -3.9170 hc         1 6FY       0.069200
     27 H9           3.7980    -1.0180    -3.1710 hc         1 6FY       0.069200
     28 H11          3.3150    -5.1060    -5.6440 h1         1 6FY       0.050700
     29 H12          5.6040    -3.5550    -6.9060 hc         1 6FY       0.071700
     30 H13          5.3280    -5.2890    -7.1240 hc         1 6FY       0.071700
     31 H14          6.9190    -5.1030    -5.3450 hc         1 6FY       0.029033
     32 H15          5.9920    -3.8170    -4.5590 hc         1 6FY       0.029033
     33 H16          5.3720    -5.4740    -4.5700 hc         1 6FY       0.029033
     34 H17          3.3300    -6.0000    -8.1150 hn         1 6FY       0.329500
     35 H18          1.1640    -4.7380    -9.4290 h1         1 6FY       0.049700
     36 H19          2.6510    -4.1660   -10.1980 h1         1 6FY       0.049700
     37 H5           3.5770    -3.9200    -3.0730 hp         1 6FY      -0.108400
     38 H53          3.4470     1.2880    -0.4980 hn         1 6FY       0.436133
@<TRIPOS>BOND
     1    17    18 1
     2    17    16 1
     3    12    13 1
     4    12    11 1
     5    18    19 1
     6    18    20 1
     7    16    14 1
     8    11    14 1
     9    11    10 1
    10    14    15 2
    11    10     8 1
    12     8     9 2
    13     8     7 1
    14     7     6 1
    15     6     4 1
    16     5     4 1
    17     4     2 1
    18     2     3 1
    19     2     1 1
    20     4    21 1
    21     5    22 1
    22     5    23 1
    23     6    24 1
    24     6    25 1
    25     7    26 1
    26     7    27 1
    27    11    28 1
    28    12    29 1
    29    12    30 1
    30    13    31 1
    31    13    32 1
    32    13    33 1
    33    16    34 1
    34    17    35 1
    35    17    36 1
    36     8    37 1
    37    38     5 1
@<TRIPOS>SUBSTRUCTURE
     1 6FY         1 TEMP              0 ****  ****    0 ROOT
