@<TRIPOS>MOLECULE
molecule
   21    22     1     0     0
SMALL
bcc


@<TRIPOS>ATOM
      1 C1           0.0000     0.0000     0.0000 ca         1 6FZ      -0.150000
      2 C2           1.3810     0.0000     0.0000 ca         1 6FZ      -0.130000
      3 C3           2.0790     0.0000     1.1970 ca         1 6FZ      -0.080300
      4 C4           1.3890     0.0000     2.3950 ca         1 6FZ      -0.080300
      5 C5           0.0040    -0.0000     2.3930 ca         1 6FZ      -0.130000
      6 C6           2.3680    -0.0010     3.5490 c3         1 6FZ      -0.023100
      7 C7           3.7150    -0.4410     2.9360 c3         1 6FZ      -0.163700
      8 C8           3.5680    -0.0010     1.4640 c3         1 6FZ      -0.023100
      9 C9           4.8640     0.2740     3.5980 c          1 6FZ       0.896600
     10 O            6.1240     0.0280     3.2040 o          1 6FZ      -0.847300
     11 C           -0.6890     0.0050     1.1980 ca         1 6FZ      -0.150000
     12 H1          -0.5420    -0.0560    -0.9360 ha         1 6FZ       0.108500
     13 H2           1.9200     0.0000    -0.9390 ha         1 6FZ       0.116000
     14 H3          -0.5380    -0.0040     3.3310 ha         1 6FZ       0.116000
     15 H4           2.0530    -0.7080     4.3070 hc         1 6FZ       0.058200
     16 H5           2.4550     0.9950     3.9670 hc         1 6FZ       0.058200
     17 H6           3.8310    -1.5160     3.0030 hc         1 6FZ       0.046700
     18 H7           4.0660    -0.7070     0.8110 hc         1 6FZ       0.058200
     19 H8           3.9730     0.9950     1.3290 hc         1 6FZ       0.058200
     20 H           -1.7720     0.0400     1.2000 ha         1 6FZ       0.108500
     21 O1           4.6520     1.0680     4.4820 o          1 6FZ      -0.847300
@<TRIPOS>BOND
     1    11     5 ar  
     2    11     1 ar  
     3     5     4 ar  
     4     1     2 ar  
     5     4     6 1   
     6     4     3 ar  
     7     6     7 1   
     8     2     3 ar  
     9     3     8 1   
    10     7     8 1   
    11     7     9 1   
    12    21     9 1   
    13     9    10 1   
    14     1    12 1   
    15     2    13 1   
    16     5    14 1   
    17     6    15 1   
    18     6    16 1   
    19     7    17 1   
    20     8    18 1   
    21     8    19 1   
    22    11    20 1   
@<TRIPOS>SUBSTRUCTURE
     1 6FZ         1 TEMP              0 ****  ****    0 ROOT
