@<TRIPOS>MOLECULE
molecule
   52    55     1     0     0
SMALL
bcc


@<TRIPOS>ATOM
      1 C10          0.0000     0.0000     0.0000 c3         1 6G1       0.080000
      2 N12          0.2180     1.1950     2.1160 n3         1 6G1      -0.821500
      3 C13          1.6870     1.1940     2.1160 c3         1 6G1       0.215300
      4 C20         -1.3580     0.2530     6.3570 ca         1 6G1      -0.256300
      5 C21         -1.6970    -0.1070     7.6260 ca         1 6G1       0.440200
      6 C24         -1.1220    -2.1100     5.8580 ca         1 6G1      -0.187300
      7 C26         -0.4910    -2.8240     3.6670 ca         1 6G1      -0.162000
      8 O01          3.3640    -0.1010    -1.1500 o          1 6G1      -0.602100
      9 C03          1.4210     0.1240    -2.4690 c3         1 6G1      -0.144700
     10 C04          2.4280     0.3360    -3.6020 c3         1 6G1      -0.070400
     11 C05          1.6820     0.4620    -4.9320 c3         1 6G1      -0.080900
     12 C06          0.8840    -0.8170    -5.1920 c3         1 6G1      -0.081400
     13 C07         -0.1230    -1.0300    -4.0600 c3         1 6G1      -0.080900
     14 C08          0.6230    -1.1560    -2.7300 c3         1 6G1      -0.070400
     15 N09          1.4690     0.0000     0.0000 n          1 6G1      -0.494800
     16 C11         -0.4900     1.1940     0.8290 c3         1 6G1       0.215300
     17 C14          2.1780     0.0000     1.2880 c3         1 6G1       0.080000
     18 S15         -0.6240     1.1960     3.5410 sy         1 6G1       1.424200
     19 O16          0.1790     1.8930     4.4830 o          1 6G1      -0.627800
     20 O17         -1.9550     1.5780     3.2210 o          1 6G1      -0.627800
     21 C18         -0.7080    -0.4740     4.0990 ca         1 6G1      -0.300500
     22 C19         -1.0590    -0.7590     5.4250 ca         1 6G1       0.070000
     23 N22         -1.7530    -1.3780     8.0020 nb         1 6G1      -0.696000
     24 C23         -1.4890    -2.3730     7.1890 ca         1 6G1       0.457200
     25 C25         -0.8300    -3.1370     4.9490 ca         1 6G1      -0.042000
     26 C27         -0.4310    -1.4980     3.2430 ca         1 6G1      -0.015000
     27 H1          -0.3630    -0.9210     0.4410 h1         1 6G1       0.064700
     28 H2          -0.3630     0.0910    -1.0170 h1         1 6G1       0.064700
     29 H3           2.0500     1.1040     3.1330 h1         1 6G1       0.071450
     30 H4           2.0500     2.1150     1.6760 h1         1 6G1       0.071450
     31 H5          -1.3190     1.2970     6.0710 ha         1 6G1       0.158000
     32 H6          -1.9270     0.6670     8.3490 h4         1 6G1       0.029100
     33 H7          -0.2670    -3.6180     2.9660 ha         1 6G1       0.137000
     34 H8           0.7430     0.9680    -2.4290 hc         1 6G1       0.063700
     35 H9           2.9910     1.2430    -3.4170 hc         1 6G1       0.053450
     36 H10          3.1030    -0.5110    -3.6460 hc         1 6G1       0.053450
     37 H11          2.3970     0.6090    -5.7320 hc         1 6G1       0.043200
     38 H12          1.0050     1.3060    -4.8860 hc         1 6G1       0.043200
     39 H13          1.5620    -1.6610    -5.2340 hc         1 6G1       0.044200
     40 H14          0.3550    -0.7250    -6.1320 hc         1 6G1       0.044200
     41 H15         -0.6850    -1.9380    -4.2450 hc         1 6G1       0.043200
     42 H16         -0.7980    -0.1840    -4.0160 hc         1 6G1       0.043200
     43 H17         -0.0920    -1.3040    -1.9300 hc         1 6G1       0.053450
     44 H18          1.3010    -2.0000    -2.7770 hc         1 6G1       0.053450
     45 H19         -1.5550     1.1030     1.0010 h1         1 6G1       0.071450
     46 H20         -0.2790     2.1150     0.2980 h1         1 6G1       0.071450
     47 H21          3.2440     0.0910     1.1160 h1         1 6G1       0.064700
     48 H22          1.9670    -0.9210     1.8180 h1         1 6G1       0.064700
     49 H23         -1.5490    -3.3940     7.5440 h4         1 6G1       0.028100
     50 H24         -0.8720    -4.1730     5.2640 ha         1 6G1       0.140000
     51 H25         -0.1590    -1.2770     2.2180 ha         1 6G1       0.138000
     52 C02          2.1560    -0.0010    -1.1600 c          1 6G1       0.668100
@<TRIPOS>BOND
     1    13    12 1   
     2    13    14 1   
     3    12    11 1   
     4    14     9 1   
     5    11    10 1   
     6     9    10 1   
     7     9    52 1   
     8    24    23 ar  
     9    24     6 ar  
    10    23     5 ar  
    11     8    52 2   
    12    52    15 1   
    13     5     4 ar  
    14    25     6 ar  
    15    25     7 ar  
    16     6    22 ar  
    17    15    17 1   
    18    15     1 1   
    19     7    26 ar  
    20     4    22 ar  
    21    22    21 ar  
    22    17     3 1   
    23     1    16 1   
    24    26    21 ar  
    25    21    18 1   
    26     2    16 1   
    27     2     3 1   
    28     2    18 1   
    29    18    19 2   
    30    18    20 2   
    31     1    27 1   
    32     1    28 1   
    33     3    29 1   
    34     3    30 1   
    35     4    31 1   
    36     5    32 1   
    37     7    33 1   
    38     9    34 1   
    39    10    35 1   
    40    10    36 1   
    41    11    37 1   
    42    11    38 1   
    43    12    39 1   
    44    12    40 1   
    45    13    41 1   
    46    13    42 1   
    47    14    43 1   
    48    14    44 1   
    49    16    45 1   
    50    16    46 1   
    51    17    47 1   
    52    17    48 1   
    53    24    49 1   
    54    25    50 1   
    55    26    51 1   
@<TRIPOS>SUBSTRUCTURE
     1 6G1         1 TEMP              0 ****  ****    0 ROOT
