@<TRIPOS>MOLECULE
6G1
   52    55     1     0     0
SMALL
bcc


@<TRIPOS>ATOM
      1 C10          0.0000     0.0000     0.0000 c3         1 6G1       0.011500
      2 N12          0.2180     1.1950     2.1160 n3         1 6G1      -0.535500
      3 C13          1.6870     1.1940     2.1160 c3         1 6G1       0.218300
      4 C20         -1.3580     0.2530     6.3570 ca         1 6G1      -0.223300
      5 C21         -1.6970    -0.1070     7.6260 ca         1 6G1       0.421200
      6 C24         -1.1220    -2.1100     5.8580 ca         1 6G1      -0.189300
      7 C26         -0.4910    -2.8240     3.6670 ca         1 6G1      -0.141000
      8 O01          3.3640    -0.1010    -1.1500 o          1 6G1      -0.639100
      9 C03          1.4210     0.1240    -2.4690 c3         1 6G1      -0.124700
     10 C04          2.4280     0.3360    -3.6020 c3         1 6G1      -0.021900
     11 C05          1.6820     0.4620    -4.9320 c3         1 6G1      -0.023900
     12 C06          0.8840    -0.8170    -5.1920 c3         1 6G1      -0.025400
     13 C07         -0.1230    -1.0300    -4.0600 c3         1 6G1      -0.023900
     14 C08          0.6230    -1.1560    -2.7300 c3         1 6G1      -0.021900
     15 N09          1.4690     0.0000     0.0000 n          1 6G1      -0.160800
     16 C11         -0.4900     1.1940     0.8290 c3         1 6G1       0.218300
     17 C14          2.1780     0.0000     1.2880 c3         1 6G1       0.011500
     18 S15         -0.6240     1.1960     3.5410 sy         1 6G1       1.058200
     19 O16          0.1790     1.8930     4.4830 o          1 6G1      -0.581300
     20 O17         -1.9550     1.5780     3.2210 o          1 6G1      -0.581300
     21 C18         -0.7080    -0.4740     4.0990 ca         1 6G1      -0.135500
     22 C19         -1.0590    -0.7590     5.4250 ca         1 6G1       0.072000
     23 N22         -1.7530    -1.3780     8.0020 nb         1 6G1      -0.585000
     24 C23         -1.4890    -2.3730     7.1890 ca         1 6G1       0.436200
     25 C25         -0.8300    -3.1370     4.9490 ca         1 6G1      -0.009000
     26 C27         -0.4310    -1.4980     3.2430 ca         1 6G1      -0.005000
     27 H1          -0.3630    -0.9210     0.4410 h1         1 6G1       0.040450
     28 H2          -0.3630     0.0910    -1.0170 h1         1 6G1       0.040450
     29 H3           2.0500     1.1040     3.1330 h1         1 6G1       0.036700
     30 H4           2.0500     2.1150     1.6760 h1         1 6G1       0.036700
     31 H5          -1.3190     1.2970     6.0710 ha         1 6G1       0.146000
     32 H6          -1.9270     0.6670     8.3490 h4         1 6G1      -0.017900
     33 H7          -0.2670    -3.6180     2.9660 ha         1 6G1       0.109000
     34 H8           0.7430     0.9680    -2.4290 hc         1 6G1       0.040700
     35 H9           2.9910     1.2430    -3.4170 hc         1 6G1       0.026950
     36 H10          3.1030    -0.5110    -3.6460 hc         1 6G1       0.026950
     37 H11          2.3970     0.6090    -5.7320 hc         1 6G1       0.013700
     38 H12          1.0050     1.3060    -4.8860 hc         1 6G1       0.013700
     39 H13          1.5620    -1.6610    -5.2340 hc         1 6G1       0.015700
     40 H14          0.3550    -0.7250    -6.1320 hc         1 6G1       0.015700
     41 H15         -0.6850    -1.9380    -4.2450 hc         1 6G1       0.013700
     42 H16         -0.7980    -0.1840    -4.0160 hc         1 6G1       0.013700
     43 H17         -0.0920    -1.3040    -1.9300 hc         1 6G1       0.026950
     44 H18          1.3010    -2.0000    -2.7770 hc         1 6G1       0.026950
     45 H19         -1.5550     1.1030     1.0010 h1         1 6G1       0.036700
     46 H20         -0.2790     2.1150     0.2980 h1         1 6G1       0.036700
     47 H21          3.2440     0.0910     1.1160 h1         1 6G1       0.040450
     48 H22          1.9670    -0.9210     1.8180 h1         1 6G1       0.040450
     49 H23         -1.5490    -3.3940     7.5440 h4         1 6G1      -0.017900
     50 H24         -0.8720    -4.1730     5.2640 ha         1 6G1       0.108000
     51 H25         -0.1590    -1.2770     2.2180 ha         1 6G1       0.113000
     52 C02          2.1560    -0.0010    -1.1600 c          1 6G1       0.597100
@<TRIPOS>BOND
     1     1    15 1   
     2     1    16 1   
     3     1    27 1   
     4     1    28 1   
     5     2     3 1   
     6     2    16 1   
     7     2    18 1   
     8     3    17 1   
     9     3    29 1   
    10     3    30 1   
    11     4     5 ar  
    12     4    22 ar  
    13     4    31 1   
    14     5    23 ar  
    15     5    32 1   
    16     6    22 ar  
    17     6    24 ar  
    18     6    25 ar  
    19     7    25 ar  
    20     7    26 ar  
    21     7    33 1   
    22     8    52 2   
    23     9    10 1   
    24     9    14 1   
    25     9    34 1   
    26     9    52 1   
    27    10    11 1   
    28    10    35 1   
    29    10    36 1   
    30    11    12 1   
    31    11    37 1   
    32    11    38 1   
    33    12    13 1   
    34    12    39 1   
    35    12    40 1   
    36    13    14 1   
    37    13    41 1   
    38    13    42 1   
    39    14    43 1   
    40    14    44 1   
    41    15    17 1   
    42    15    52 1   
    43    16    45 1   
    44    16    46 1   
    45    17    47 1   
    46    17    48 1   
    47    18    19 2   
    48    18    20 2   
    49    18    21 1   
    50    21    22 ar  
    51    21    26 ar  
    52    23    24 ar  
    53    24    49 1   
    54    25    50 1   
    55    26    51 1   
@<TRIPOS>SUBSTRUCTURE
     1 6G1         1 TEMP              0 ****  ****    0 ROOT
