@<TRIPOS>MOLECULE
6G2
   47    50     1     0     0
SMALL
bcc


@<TRIPOS>ATOM
      1 C1           0.0000     0.0000     0.0000 ca         1 6G2       0.465200
      2 C2          -0.0730    -0.0060     2.3070 ca         1 6G2       0.371200
      3 C3           1.3170    -0.0120     2.3900 ca         1 6G2      -0.071300
      4 C11          3.6870     1.2250     7.9700 c3         1 6G2      -0.024400
      5 C12          2.0710     0.0000     1.2090 ca         1 6G2      -0.181000
      6 C13          1.3970     0.0000     0.0000 ca         1 6G2       0.036800
      7 C14          3.5130    -0.0000    -1.0860 c3         1 6G2       0.256700
      8 C15          4.0990    -0.0010    -2.4750 ca         1 6G2      -0.081300
      9 C16          4.3690    -1.1920    -3.1310 ca         1 6G2      -0.196800
     10 N2          -0.6790     0.0000     1.1360 nb         1 6G2      -0.547000
     11 N1          -0.6860     0.0070    -1.2110 nv         1 6G2      -0.643500
     12 C8           3.7090    -1.2700     7.9640 c3         1 6G2      -0.024400
     13 C4           1.9890    -0.0180     3.7090 cc         1 6G2      -0.051400
     14 N3           3.6650    -0.0190     5.1910 nd         1 6G2      -0.556000
     15 C7           2.9120    -0.0280     7.5560 c3         1 6G2      -0.058000
     16 C6           2.7120    -0.0270     6.0620 cc         1 6G2       0.444700
     17 C5           3.3220    -0.0180     3.9220 cd         1 6G2       0.356200
     18 N4           4.7050    -0.0170     9.8190 n7         1 6G2      -0.577200
     19 C9           3.9610    -1.2350     9.4740 c3         1 6G2       0.148800
     20 N5           5.1620    -0.0010    -4.9930 nb         1 6G2      -0.574000
     21 C10          3.9390     1.1890     9.4790 c3         1 6G2       0.148800
     22 S1           1.1920    -0.0190     5.2810 ss         1 6G2      -0.288300
     23 O1           2.0860    -0.0000    -1.1730 os         1 6G2      -0.281900
     24 C17          4.9070    -1.1520    -4.4030 ca         1 6G2       0.402200
     25 C18          4.9130     1.1520    -4.4010 ca         1 6G2       0.402200
     26 C19          4.3760     1.1910    -3.1280 ca         1 6G2      -0.196800
     27 H1          -0.6640    -0.0100     3.2160 h4         1 6G2      -0.006900
     28 H2           3.1070     2.1060     7.7230 hc         1 6G2       0.030700
     29 H3           4.6350     1.2520     7.4470 hc         1 6G2       0.030700
     30 H4           3.1530    -0.0020     1.2420 ha         1 6G2       0.131000
     31 H5           3.8430     0.8840    -0.5550 h1         1 6G2       0.007700
     32 H6           3.8420    -0.8850    -0.5550 h1         1 6G2       0.007700
     33 H7           4.1620    -2.1410    -2.6530 ha         1 6G2       0.117000
     34 H8          -0.9480     0.8760    -1.6330 hn         1 6G2       0.276800
     35 H9          -0.9510    -0.8570    -1.6410 hn         1 6G2       0.276800
     36 H10          3.1440    -2.1590     7.7130 hc         1 6G2       0.030700
     37 H11          4.6570    -1.2780     7.4400 hc         1 6G2       0.030700
     38 H12          1.9500    -0.0380     8.0550 hc         1 6G2       0.033700
     39 H13          4.0470    -0.0120     3.1170 h4         1 6G2       0.002100
     40 H14          4.9090    -0.0170    10.7990 hn         1 6G2       0.250800
     41 H16          3.0120    -1.2370     9.9970 h1         1 6G2       0.005200
     42 H17          4.5400    -2.1040     9.7620 h1         1 6G2       0.005200
     43 H18          2.9900     1.1720    10.0020 h1         1 6G2       0.005200
     44 H19          4.5020     2.0670     9.7710 h1         1 6G2       0.005200
     45 H20          5.1240    -2.0780    -4.9220 h4         1 6G2      -0.018400
     46 H21          5.1350     2.0780    -4.9180 h4         1 6G2      -0.018400
     47 H22          4.1740     2.1410    -2.6470 ha         1 6G2       0.117000
@<TRIPOS>BOND
     1     1     6 ar  
     2     1    10 ar  
     3     1    11 1   
     4     2     3 ar  
     5     2    10 ar  
     6     2    27 1   
     7     3     5 ar  
     8     3    13 1   
     9     4    15 1   
    10     4    21 1   
    11     4    28 1   
    12     4    29 1   
    13     5     6 ar  
    14     5    30 1   
    15     6    23 1   
    16     7     8 1   
    17     7    23 1   
    18     7    31 1   
    19     7    32 1   
    20     8     9 ar  
    21     8    26 ar  
    22     9    24 ar  
    23     9    33 1   
    24    11    34 1   
    25    11    35 1   
    26    12    15 1   
    27    12    19 1   
    28    12    36 1   
    29    12    37 1   
    30    13    17 2   
    31    13    22 1   
    32    14    16 2   
    33    14    17 1   
    34    15    16 1   
    35    15    38 1   
    36    16    22 1   
    37    17    39 1   
    38    18    19 1   
    39    18    21 1   
    40    18    40 1   
    41    19    41 1   
    42    19    42 1   
    43    20    24 ar  
    44    20    25 ar  
    45    21    43 1   
    46    21    44 1   
    47    24    45 1   
    48    25    26 ar  
    49    25    46 1   
    50    26    47 1   
@<TRIPOS>SUBSTRUCTURE
     1 6G2         1 TEMP              0 ****  ****    0 ROOT
