@<TRIPOS>MOLECULE
molecule
   47    50     1     0     0
SMALL
bcc


@<TRIPOS>ATOM
      1 C1           0.0000     0.0000     0.0000 ca         1 6G2       0.655200
      2 C2          -0.0730    -0.0060     2.3070 ca         1 6G2       0.396200
      3 C3           1.3170    -0.0120     2.3900 ca         1 6G2      -0.092300
      4 C11          3.6870     1.2250     7.9700 c3         1 6G2      -0.068900
      5 C12          2.0710     0.0000     1.2090 ca         1 6G2      -0.183000
      6 C13          1.3970     0.0000     0.0000 ca         1 6G2       0.019800
      7 C14          3.5130    -0.0000    -1.0860 c3         1 6G2       0.179700
      8 C15          4.0990    -0.0010    -2.4750 ca         1 6G2      -0.058300
      9 C16          4.3690    -1.1920    -3.1310 ca         1 6G2      -0.230800
     10 N2          -0.6790     0.0000     1.1360 nb         1 6G2      -0.669000
     11 N1          -0.6860     0.0070    -1.2110 nv         1 6G2      -1.069500
     12 C8           3.7090    -1.2700     7.9640 c3         1 6G2      -0.068900
     13 C4           1.9890    -0.0180     3.7090 cc         1 6G2      -0.104400
     14 N3           3.6650    -0.0190     5.1910 nc         1 6G2      -0.680000
     15 C7           2.9120    -0.0280     7.5560 c3         1 6G2      -0.090000
     16 C6           2.7120    -0.0270     6.0620 cd         1 6G2       0.456700
     17 C5           3.3220    -0.0180     3.9220 cc         1 6G2       0.378200
     18 N4           4.7050    -0.0170     9.8190 n7         1 6G2      -0.816200
     19 C9           3.9610    -1.2350     9.4740 c3         1 6G2       0.157800
     20 N5           5.1620    -0.0010    -4.9930 nb         1 6G2      -0.682000
     21 C10          3.9390     1.1890     9.4790 c3         1 6G2       0.157800
     22 S1           1.1920    -0.0190     5.2810 ss         1 6G2      -0.190300
     23 O1           2.0860    -0.0000    -1.1730 os         1 6G2      -0.303900
     24 C17          4.9070    -1.1520    -4.4030 ca         1 6G2       0.417200
     25 C18          4.9130     1.1520    -4.4010 ca         1 6G2       0.417200
     26 C19          4.3760     1.1910    -3.1280 ca         1 6G2      -0.230800
     27 H1          -0.6640    -0.0100     3.2160 h4         1 6G2       0.028100
     28 H2           3.1070     2.1060     7.7230 hc         1 6G2       0.061200
     29 H3           4.6350     1.2520     7.4470 hc         1 6G2       0.061200
     30 H4           3.1530    -0.0020     1.2420 ha         1 6G2       0.144000
     31 H5           3.8430     0.8840    -0.5550 h1         1 6G2       0.044700
     32 H6           3.8420    -0.8850    -0.5550 h1         1 6G2       0.044700
     33 H7           4.1620    -2.1410    -2.6530 ha         1 6G2       0.142000
     34 H8          -0.9480     0.8760    -1.6330 hn         1 6G2       0.437800
     35 H9          -0.9510    -0.8570    -1.6410 hn         1 6G2       0.437800
     36 H10          3.1440    -2.1590     7.7130 hc         1 6G2       0.061200
     37 H11          4.6570    -1.2780     7.4400 hc         1 6G2       0.061200
     38 H12          1.9500    -0.0380     8.0550 hc         1 6G2       0.056700
     39 H13          4.0470    -0.0120     3.1170 h4         1 6G2       0.042100
     40 H14          4.9090    -0.0170    10.7990 hn         1 6G2       0.353800
     41 H16          3.0120    -1.2370     9.9970 h1         1 6G2       0.032200
     42 H17          4.5400    -2.1040     9.7620 h1         1 6G2       0.032200
     43 H18          2.9900     1.1720    10.0020 h1         1 6G2       0.032200
     44 H19          4.5020     2.0670     9.7710 h1         1 6G2       0.032200
     45 H20          5.1240    -2.0780    -4.9220 h4         1 6G2       0.026100
     46 H21          5.1350     2.0780    -4.9180 h4         1 6G2       0.026100
     47 H22          4.1740     2.1410    -2.6470 ha         1 6G2       0.142000
@<TRIPOS>BOND
     1    21     4 1   
     2    21    18 1   
     3    14    17 1   
     4    14    16 2   
     5     4    15 1   
     6    15    16 1   
     7    15    12 1   
     8    19    18 1   
     9    19    12 1   
    10    17    13 2   
    11    16    22 1   
    12    24     9 ar  
    13    24    20 ar  
    14     9     8 ar  
    15    20    25 ar  
    16    13    22 1   
    17    13     3 1   
    18     8     7 1   
    19     8    26 ar  
    20     7    23 1   
    21     5     3 ar  
    22     5     6 ar  
    23    25    26 ar  
    24     3     2 ar  
    25    23     6 1   
    26     6     1 ar  
    27     2    10 ar  
    28     1    10 ar  
    29     1    11 1   
    30     2    27 1   
    31     4    28 1   
    32     4    29 1   
    33     5    30 1   
    34     7    31 1   
    35     7    32 1   
    36     9    33 1   
    37    11    34 1   
    38    11    35 1   
    39    12    36 1   
    40    12    37 1   
    41    15    38 1   
    42    17    39 1   
    43    18    40 1   
    44    19    41 1   
    45    19    42 1   
    46    21    43 1   
    47    21    44 1   
    48    24    45 1   
    49    25    46 1   
    50    26    47 1   
@<TRIPOS>SUBSTRUCTURE
     1 6G2         1 TEMP              0 ****  ****    0 ROOT
