@<TRIPOS>MOLECULE
6G3
   60    64     1     0     0
SMALL
bcc


@<TRIPOS>ATOM
      1 C10          0.0000     0.0000     0.0000 cc         1 6G3       0.442200
      2 C15          1.1940    -1.0470     5.4030 ca         1 6G3      -0.068000
      3 C17          1.3920    -0.0790     7.5990 ca         1 6G3      -0.080400
      4 C20          3.2290     2.0480     5.1630 ca         1 6G3      -0.074000
      5 C21          3.6960     3.0230     5.9940 ca         1 6G3      -0.109000
      6 C22          3.4150     2.9960     7.3580 ca         1 6G3      -0.089000
      7 C28          0.2250    -2.5440    11.4950 ca         1 6G3      -0.076400
      8 C02          4.4770     0.0110     0.5450 c3         1 6G3      -0.026000
      9 C03          5.3360    -1.2390     0.7510 c3         1 6G3       0.005900
     10 C04          3.3330     0.0000     1.5260 cc         1 6G3       0.092800
     11 N05          3.4580    -0.0090     2.8280 nd         1 6G3      -0.455300
     12 C06          2.2430    -0.0170     3.4020 cd         1 6G3       0.095400
     13 C07          1.3070    -0.0100     2.3730 cc         1 6G3      -0.451600
     14 N08          2.0290     0.0000     1.1940 na         1 6G3       0.579800
     15 C09          1.3450     0.0000     0.0000 cd         1 6G3      -0.423600
     16 N11         -0.7030     0.0020     1.1400 nc         1 6G3      -0.646000
     17 C12         -0.1010    -0.0030     2.3160 cd         1 6G3       0.611200
     18 N13         -0.8470    -0.0140     3.4820 nv         1 6G3      -0.645500
     19 C14          1.9560    -0.0280     4.8510 ca         1 6G3      -0.005800
     20 C16          0.9180    -1.0690     6.7620 ca         1 6G3      -0.126000
     21 C18          2.1690     0.9740     7.0710 ca         1 6G3      -0.049000
     22 C19          2.4560     1.0020     5.6850 ca         1 6G3      -0.001000
     23 C23          2.6680     1.9940     7.8980 ca         1 6G3      -0.115000
     24 C25          0.8090    -1.2930     9.5570 c          1 6G3       0.551100
     25 O26          0.8900    -2.3290     8.9260 o          1 6G3      -0.678100
     26 N27          0.4270    -1.3190    10.8490 ns         1 6G3      -0.052100
     27 C29          1.0150    -3.6400    11.1690 ca         1 6G3      -0.069000
     28 C30          0.8180    -4.8460    11.8130 ca         1 6G3      -0.084000
     29 C31         -0.1630    -4.9630    12.7800 ca         1 6G3      -0.065000
     30 C32         -0.9500    -3.8740    13.1070 ca         1 6G3      -0.191300
     31 C33         -0.7590    -2.6650    12.4670 ca         1 6G3      -0.083000
     32 C34         -2.0190    -4.0060    14.1610 c3         1 6G3       0.640200
     33 F35         -3.2670    -3.7180    13.5990 f          1 6G3      -0.208633
     34 F36         -2.0220    -5.3130    14.6600 f          1 6G3      -0.208633
     35 F37         -1.7580    -3.1100    15.2030 f          1 6G3      -0.208633
     36 H1          -0.5280     0.0040    -0.9460 h4         1 6G3      -0.011900
     37 H2           0.8110    -1.8350     4.7660 ha         1 6G3       0.109000
     38 H3           3.4550     2.0820     4.1040 ha         1 6G3       0.123000
     39 H4           4.2930     3.8300     5.5870 ha         1 6G3       0.102000
     40 H5           3.7970     3.7820     7.9970 ha         1 6G3       0.099000
     41 H6           6.0630     1.3450    -0.0240 hc         1 6G3       0.009200
     42 H7           4.6960     2.1370     0.7710 hc         1 6G3       0.009200
     43 H8           5.8400     1.1820     1.7240 hc         1 6G3       0.009200
     44 H9           4.1070     0.0310    -0.4730 hc         1 6G3       0.016700
     45 H10          6.0990    -1.2840    -0.0170 hc         1 6G3       0.009200
     46 H11          5.8080    -1.1960     1.7250 hc         1 6G3       0.009200
     47 H12          4.7110    -2.1210     0.6910 hc         1 6G3       0.009200
     48 H13          1.8890    -0.0020    -0.9370 h4         1 6G3       0.149000
     49 H14         -1.2550    -0.8690     3.8060 hn         1 6G3       0.287300
     50 H15         -1.0330     0.8430     3.9640 hn         1 6G3       0.287300
     51 H16          0.3210    -1.8740     7.1730 ha         1 6G3       0.160000
     52 H17          2.4570     1.9850     8.9600 ha         1 6G3       0.095000
     53 H18          1.1450     0.7200     9.5090 hn         1 6G3       0.167500
     54 H19          0.1820    -0.4660    11.3120 hn         1 6G3       0.164500
     55 H20          1.7840    -3.5490    10.4120 ha         1 6G3       0.146000
     56 H21          1.4330    -5.7010    11.5590 ha         1 6G3       0.112000
     57 H22         -0.3160    -5.9110    13.2840 ha         1 6G3       0.121000
     58 H23         -1.3760    -1.8130    12.7240 ha         1 6G3       0.115000
     59 N24          1.1020    -0.1180     8.9640 ns         1 6G3      -0.033100
     60 C01          5.3310     1.2600     0.7710 c3         1 6G3       0.005900
@<TRIPOS>BOND
     1     1    15 2   
     2     1    16 1   
     3     1    36 1   
     4     2    19 ar  
     5     2    20 ar  
     6     2    37 1   
     7     3    20 ar  
     8     3    21 ar  
     9     3    59 1   
    10     4     5 ar  
    11     4    22 ar  
    12     4    38 1   
    13     5     6 ar  
    14     5    39 1   
    15     6    23 ar  
    16     6    40 1   
    17     7    26 1   
    18     7    27 ar  
    19     7    31 ar  
    20     8     9 1   
    21     8    10 1   
    22     8    44 1   
    23     8    60 1   
    24     9    45 1   
    25     9    46 1   
    26     9    47 1   
    27    10    11 2   
    28    10    14 1   
    29    11    12 1   
    30    12    13 2   
    31    12    19 1   
    32    13    14 1   
    33    13    17 1   
    34    14    15 1   
    35    15    48 1   
    36    16    17 2   
    37    17    18 1   
    38    18    49 1   
    39    18    50 1   
    40    19    22 ar  
    41    20    51 1   
    42    21    22 ar  
    43    21    23 ar  
    44    23    52 1   
    45    24    25 2   
    46    24    26 1   
    47    24    59 1   
    48    26    54 1   
    49    27    28 ar  
    50    27    55 1   
    51    28    29 ar  
    52    28    56 1   
    53    29    30 ar  
    54    29    57 1   
    55    30    31 ar  
    56    30    32 1   
    57    31    58 1   
    58    32    33 1   
    59    32    34 1   
    60    32    35 1   
    61    41    60 1   
    62    42    60 1   
    63    43    60 1   
    64    53    59 1   
@<TRIPOS>SUBSTRUCTURE
     1 6G3         1 TEMP              0 ****  ****    0 ROOT
