@<TRIPOS>MOLECULE
molecule
   31    33     1     0     0
SMALL
bcc


@<TRIPOS>ATOM
      1 C1           0.0000     0.0000     0.0000 ca         1 6G7       0.160100
      2 C2           1.3870     0.0000     0.0000 ca         1 6G7      -0.250000
      3 C3           2.0800     0.0000     1.1990 ca         1 6G7       0.186100
      4 C9           2.1080     0.0030     3.6940 cc         1 6G7       0.433500
      5 C12          2.5260     0.0830     5.8650 c          1 6G7       0.771500
      6 C14          0.1680     0.2480     5.2200 ca         1 6G7       0.015600
      7 C15         -0.4100     1.5100     5.2920 ca         1 6G7       0.152900
      8 C16         -1.7610     1.6340     5.5600 ca         1 6G7      -0.166000
      9 C19         -0.6130    -0.8830     5.4130 ca         1 6G7      -0.094000
     10 C4           1.3750     0.0020     2.4090 ca         1 6G7      -0.149900
     11 C5          -0.0210     0.0030     2.3990 ca         1 6G7      -0.074000
     12 C6          -0.7000     0.0020     1.2010 ca         1 6G7      -0.187000
     13 O7          -0.6760     0.0050    -1.1780 oh         1 6G7      -0.519100
     14 O8           3.4370    -0.0010     1.2020 oh         1 6G7      -0.466100
     15 N10          3.4010    -0.0990     3.8330 nd         1 6G7      -0.458300
     16 N11          3.6940    -0.0510     5.2030 ns         1 6G7      -0.330900
     17 N13          1.5380     0.1180     4.9480 n          1 6G7      -0.307500
     18 C17         -2.5350     0.5040     5.7570 ca         1 6G7      -0.093000
     19 C18         -1.9630    -0.7520     5.6750 ca         1 6G7      -0.144000
     20 O20          2.3890     0.1590     7.0730 o          1 6G7      -0.647500
     21 F21          0.3460     2.6130     5.1000 f          1 6G7      -0.120900
     22 H1           1.9290    -0.0010    -0.9380 ha         1 6G7       0.149000
     23 H2          -2.2130     2.6170     5.6210 ha         1 6G7       0.155000
     24 H3          -0.1650    -1.8680     5.3530 ha         1 6G7       0.153000
     25 H4          -0.5690     0.0040     3.3330 ha         1 6G7       0.157000
     26 H5          -1.7830     0.0020     1.1940 ha         1 6G7       0.148000
     27 H6          -0.8200    -0.8820    -1.4620 ho         1 6G7       0.425000
     28 H7           3.7530    -0.3870     0.4010 ho         1 6G7       0.424000
     29 H8           4.6040    -0.1060     5.6150 hn         1 6G7       0.393500
     30 H9          -3.5940     0.6040     5.9650 ha         1 6G7       0.143000
     31 H10         -2.5730    -1.6340     5.8270 ha         1 6G7       0.143000
@<TRIPOS>BOND
     1    13     1 1
     2     1     2 ar
     3     1    12 ar
     4    19    18 ar
     5    19     9 ar
     6     2     3 ar
     7    12    11 ar
     8    18     8 ar
     9     9     6 ar
    10     3    14 1
    11     3    10 ar
    12    11    10 ar
    13     8     7 ar
    14    10     4 1
    15     6     7 ar
    16     6    17 1
    17     7    21 1
    18     4    17 1
    19     4    15 2
    20    17     5 1
    21    15    16 1
    22     5    20 2
    23     5    16 1
    24     2    22 1
    25     8    23 1
    26     9    24 1
    27    11    25 1
    28    12    26 1
    29    13    27 1
    30    14    28 1
    31    16    29 1
    32    18    30 1
    33    19    31 1
@<TRIPOS>SUBSTRUCTURE
     1 6G7         1 TEMP              0 ****  ****    0 ROOT
