@<TRIPOS>MOLECULE
molecule
   32    34     1     0     0
SMALL
bcc


@<TRIPOS>ATOM
      1 C2           0.0000     0.0000     0.0000 c          1 6G9       0.832600
      2 C4           1.4930     0.0000     0.0000 c          1 6G9       0.557100
      3 C7           3.5620    -0.0980     1.1710 ca         1 6G9       0.097600
      4 C8           4.2110    -0.7930     2.1890 ca         1 6G9      -0.171000
      5 C12          8.1830     0.3350     0.0360 cc         1 6G9       0.439800
      6 N13          9.5350     0.4300    -0.2470 ns         1 6G9      -0.457400
      7 C16         11.8670    -0.0510     0.2690 cd         1 6G9      -0.168900
      8 C17         12.8960    -0.5980     1.0080 cc         1 6G9      -0.092000
      9 C18         14.0900    -0.2640     0.3620 cc         1 6G9      -0.074900
     10 N22         12.4300     0.6040    -0.8050 na         1 6G9      -0.133100
     11 C24          5.6890     0.4070     0.1720 ca         1 6G9      -0.008100
     12 O1          -0.6070     0.0000     1.0490 o          1 6G9      -0.801300
     13 O3          -0.6720     0.0060    -1.1670 o          1 6G9      -0.801300
     14 O5           2.1000    -0.0000    -1.0510 o          1 6G9      -0.603100
     15 N6           2.1670    -0.0000     1.1670 ns         1 6G9      -0.475100
     16 C9           5.5680    -0.8910     2.2050 ca         1 6G9      -0.060000
     17 C10          6.3460    -0.2900     1.1920 ca         1 6G9       0.085400
     18 N11          7.6870    -0.2850     1.0510 nd         1 6G9      -0.561100
     19 C14         10.4370    -0.1510     0.5690 c          1 6G9       0.686700
     20 O15         10.0630    -0.7600     1.5540 o          1 6G9      -0.508100
     21 Br1         15.8300    -0.7450     0.9220 br         1 6G9      -0.058100
     22 C20         13.7770     0.4680    -0.7370 cd         1 6G9      -0.015200
     23 Br2         15.0190     1.1780    -1.9750 br         1 6G9      -0.033100
     24 S23          6.9010     1.0420    -0.9370 ss         1 6G9      -0.177100
     25 C25          4.3010     0.5010     0.1640 ca         1 6G9      -0.113000
     26 H1           3.6300    -1.2600     2.9750 ha         1 6G9       0.136000
     27 H2           9.8420     0.9310    -1.0570 hn         1 6G9       0.320500
     28 H3          12.7980    -1.1780     1.9170 ha         1 6G9       0.186000
     29 H4          11.9280     1.0980    -1.5170 hn         1 6G9       0.307700
     30 H6           1.6640    -0.0220     2.0320 hn         1 6G9       0.340500
     31 H7           6.0570    -1.4350     3.0040 ha         1 6G9       0.138000
     32 H8           3.7990     1.0420    -0.6290 ha         1 6G9       0.184000
@<TRIPOS>BOND
     1    21     9 1   
     2     9     8 1   
     3     9    22 2   
     4     8     7 2   
     5    23    22 1   
     6    22    10 1   
     7     7    10 1   
     8     7    19 1   
     9     6    19 1   
    10     6     5 1   
    11    19    20 2   
    12    18     5 2   
    13    18    17 1   
    14     5    24 1   
    15    16    17 ar  
    16    16     4 ar  
    17    17    11 ar  
    18    24    11 1   
    19     4     3 ar  
    20    11    25 ar  
    21     3    25 ar  
    22     3    15 1   
    23    15     2 1   
    24     2    14 2   
    25     2     1 1   
    26     1    12 1   
    27     1    13 1   
    28     4    26 1   
    29     6    27 1   
    30     8    28 1   
    31    10    29 1   
    32    15    30 1   
    33    16    31 1   
    34    25    32 1   
@<TRIPOS>SUBSTRUCTURE
     1 6G9         1 TEMP              0 ****  ****    0 ROOT
