@<TRIPOS>MOLECULE
6G9
   32    34     1     0     0
SMALL
bcc


@<TRIPOS>ATOM
      1 C2           0.0000     0.0000     0.0000 c          1 6G9       0.917600
      2 C4           1.4930     0.0000     0.0000 c          1 6G9       0.467100
      3 C7           3.5620    -0.0980     1.1710 ca         1 6G9      -0.034400
      4 C8           4.2110    -0.7930     2.1890 ca         1 6G9      -0.151000
      5 C12          8.1830     0.3350     0.0360 cc         1 6G9       0.244800
      6 N13          9.5350     0.4300    -0.2470 ns         1 6G9      -0.002400
      7 C16         11.8670    -0.0510     0.2690 cc         1 6G9      -0.390900
      8 C17         12.8960    -0.5980     1.0080 cd         1 6G9      -0.055000
      9 C18         14.0900    -0.2640     0.3620 cd         1 6G9      -0.035900
     10 N22         12.4300     0.6040    -0.8050 na         1 6G9       0.443900
     11 C24          5.6890     0.4070     0.1720 ca         1 6G9       0.034900
     12 O1          -0.6070     0.0000     1.0490 o          1 6G9      -0.855300
     13 O3          -0.6720     0.0060    -1.1670 o          1 6G9      -0.855300
     14 O5           2.1000    -0.0000    -1.0510 o          1 6G9      -0.631100
     15 N6           2.1670    -0.0000     1.1670 ns         1 6G9      -0.052100
     16 C9           5.5680    -0.8910     2.2050 ca         1 6G9      -0.025000
     17 C10          6.3460    -0.2900     1.1920 ca         1 6G9       0.020400
     18 N11          7.6870    -0.2850     1.0510 nd         1 6G9      -0.404100
     19 C14         10.4370    -0.1510     0.5690 c          1 6G9       0.594700
     20 O15         10.0630    -0.7600     1.5540 o          1 6G9      -0.559100
     21 Br1         15.8300    -0.7450     0.9220 br         1 6G9      -0.085100
     22 C20         13.7770     0.4680    -0.7370 cc         1 6G9      -0.197200
     23 Br2         15.0190     1.1780    -1.9750 br         1 6G9      -0.044100
     24 S23          6.9010     1.0420    -0.9370 ss         1 6G9      -0.254100
     25 C25          4.3010     0.5010     0.1640 ca         1 6G9      -0.089000
     26 H1           3.6300    -1.2600     2.9750 ha         1 6G9       0.110000
     27 H2           9.8420     0.9310    -1.0570 hn         1 6G9       0.154500
     28 H3          12.7980    -1.1780     1.9170 ha         1 6G9       0.152000
     29 H4          11.9280     1.0980    -1.5170 hn         1 6G9       0.115700
     30 H6           1.6640    -0.0220     2.0320 hn         1 6G9       0.192500
     31 H7           6.0570    -1.4350     3.0040 ha         1 6G9       0.107000
     32 H8           3.7990     1.0420    -0.6290 ha         1 6G9       0.166000
@<TRIPOS>BOND
     1     1     2 1   
     2     1    12 1   
     3     1    13 1   
     4     2    14 2   
     5     2    15 1   
     6     3     4 ar  
     7     3    15 1   
     8     3    25 ar  
     9     4    16 ar  
    10     4    26 1   
    11     5     6 1   
    12     5    18 2   
    13     5    24 1   
    14     6    19 1   
    15     6    27 1   
    16     7     8 2   
    17     7    10 1   
    18     7    19 1   
    19     8     9 1   
    20     8    28 1   
    21     9    21 1   
    22     9    22 2   
    23    10    22 1   
    24    10    29 1   
    25    11    17 ar  
    26    11    24 1   
    27    11    25 ar  
    28    15    30 1   
    29    16    17 ar  
    30    16    31 1   
    31    17    18 1   
    32    19    20 2   
    33    22    23 1   
    34    25    32 1   
@<TRIPOS>SUBSTRUCTURE
     1 6G9         1 TEMP              0 ****  ****    0 ROOT
