@<TRIPOS>MOLECULE
6GA
   40    41     1     0     0
SMALL
bcc


@<TRIPOS>ATOM
      1 O10          0.0000     0.0000     0.0000 o          1 6GA      -0.645100
      2 C9           1.2130     0.0000     0.0000 c          1 6GA       0.599100
      3 C11          1.9660     0.0000     1.3050 c3         1 6GA      -0.188700
      4 C12          2.8330     1.2300     1.3850 c          1 6GA       0.567100
      5 O15          2.4440     2.2770     0.9130 o          1 6GA      -0.601100
      6 C16          0.9720     0.0000     2.4680 c3         1 6GA       0.062900
      7 C17          0.2260    -1.3090     2.4920 ca         1 6GA      -0.116300
      8 C18          0.7940    -2.4160     3.0920 ca         1 6GA      -0.059500
      9 C19          0.1110    -3.6180     3.1150 ca         1 6GA      -0.140000
     10 C22         -1.0280    -1.3990     1.9170 ca         1 6GA      -0.059500
     11 C21         -1.7130    -2.5990     1.9380 ca         1 6GA      -0.140000
     12 C20         -1.1430    -3.7120     2.5350 ca         1 6GA       0.102900
     13 F29         -1.8110    -4.8850     2.5560 f          1 6GA      -0.130900
     14 N8           1.8860    -0.0050    -1.1670 ns         1 6GA      -0.180900
     15 C1           1.1540    -0.0120    -2.4360 c3         1 6GA       0.112300
     16 C2           2.1330    -0.0170    -3.5810 ca         1 6GA      -0.129300
     17 C3           2.5820    -1.2170    -4.1000 ca         1 6GA      -0.083000
     18 C4           3.4810    -1.2220    -5.1520 ca         1 6GA      -0.103000
     19 C5           3.9300    -0.0280    -5.6820 ca         1 6GA      -0.092000
     20 C6           3.4810     1.1730    -5.1630 ca         1 6GA      -0.103000
     21 C7           2.5780     1.1780    -4.1160 ca         1 6GA      -0.083000
     22 N1           4.0400     1.1670     1.9810 ns         1 6GA      -0.057400
     23 O2           4.8070     2.3450     2.1530 oh         1 6GA      -0.435100
     24 H1           2.5890    -0.8850     1.3630 hc         1 6GA       0.038700
     25 H2           0.2690     0.8140     2.3420 hc         1 6GA       0.033200
     26 H3           1.5080     0.1270     3.4010 hc         1 6GA       0.033200
     27 H4           1.7750    -2.3420     3.5460 ha         1 6GA       0.122000
     28 H5           0.5570    -4.4870     3.5840 ha         1 6GA       0.118000
     29 H6          -1.4740    -0.5290     1.4510 ha         1 6GA       0.122000
     30 H7          -2.6950    -2.6700     1.4860 ha         1 6GA       0.118000
     31 H8           2.8870    -0.0360    -1.1670 hn         1 6GA       0.172500
     32 H9           0.5310    -0.8970    -2.4890 h1         1 6GA       0.031700
     33 H10          0.5310     0.8720    -2.4970 h1         1 6GA       0.031700
     34 H11          2.2300    -2.1540    -3.6840 ha         1 6GA       0.110500
     35 H12          3.8330    -2.1620    -5.5590 ha         1 6GA       0.105000
     36 H13          4.6360    -0.0320    -6.5040 ha         1 6GA       0.103000
     37 H14          3.8310     2.1090    -5.5810 ha         1 6GA       0.105000
     38 H15          2.2260     2.1180    -3.7090 ha         1 6GA       0.110500
     39 H16          4.4030     0.2850     2.2840 hn         1 6GA       0.156500
     40 H17          5.6810     2.1140     2.4240 ho         1 6GA       0.394000
@<TRIPOS>BOND
     1     1     2 2   
     2     2     3 1   
     3     2    14 1   
     4     3     4 1   
     5     3     6 1   
     6     3    24 1   
     7     4     5 2   
     8     4    22 1   
     9     6     7 1   
    10     6    25 1   
    11     6    26 1   
    12     7     8 ar  
    13     7    10 ar  
    14     8     9 ar  
    15     8    27 1   
    16     9    12 ar  
    17     9    28 1   
    18    10    11 ar  
    19    10    29 1   
    20    11    12 ar  
    21    11    30 1   
    22    12    13 1   
    23    14    15 1   
    24    14    31 1   
    25    15    16 1   
    26    15    32 1   
    27    15    33 1   
    28    16    17 ar  
    29    16    21 ar  
    30    17    18 ar  
    31    17    34 1   
    32    18    19 ar  
    33    18    35 1   
    34    19    20 ar  
    35    19    36 1   
    36    20    21 ar  
    37    20    37 1   
    38    21    38 1   
    39    22    23 1   
    40    22    39 1   
    41    23    40 1   
@<TRIPOS>SUBSTRUCTURE
     1 6GA         1 TEMP              0 ****  ****    0 ROOT
