@<TRIPOS>MOLECULE
molecule
   40    41     1     0     0
SMALL
bcc


@<TRIPOS>ATOM
      1 O10          0.0000     0.0000     0.0000 o          1 6GA      -0.601100
      2 C9           1.2130     0.0000     0.0000 c          1 6GA       0.685100
      3 C11          1.9660     0.0000     1.3050 c3         1 6GA      -0.207700
      4 C12          2.8330     1.2300     1.3850 c          1 6GA       0.667100
      5 O15          2.4440     2.2770     0.9130 o          1 6GA      -0.554100
      6 C16          0.9720     0.0000     2.4680 c3         1 6GA      -0.005100
      7 C17          0.2260    -1.3090     2.4920 ca         1 6GA      -0.114300
      8 C18          0.7940    -2.4160     3.0920 ca         1 6GA      -0.082500
      9 C19          0.1110    -3.6180     3.1150 ca         1 6GA      -0.175000
     10 C22         -1.0280    -1.3990     1.9170 ca         1 6GA      -0.082500
     11 C21         -1.7130    -2.5990     1.9380 ca         1 6GA      -0.175000
     12 C20         -1.1430    -3.7120     2.5350 ca         1 6GA       0.134900
     13 F29         -1.8110    -4.8850     2.5560 f          1 6GA      -0.142900
     14 N8           1.8860    -0.0050    -1.1670 ns         1 6GA      -0.572900
     15 C1           1.1540    -0.0120    -2.4360 c3         1 6GA       0.163300
     16 C2           2.1330    -0.0170    -3.5810 ca         1 6GA      -0.121300
     17 C3           2.5820    -1.2170    -4.1000 ca         1 6GA      -0.111000
     18 C4           3.4810    -1.2220    -5.1520 ca         1 6GA      -0.132000
     19 C5           3.9300    -0.0280    -5.6820 ca         1 6GA      -0.120000
     20 C6           3.4810     1.1730    -5.1630 ca         1 6GA      -0.132000
     21 C7           2.5780     1.1780    -4.1160 ca         1 6GA      -0.111000
     22 N1           4.0400     1.1670     1.9810 ns         1 6GA      -0.474400
     23 O2           4.8070     2.3450     2.1530 oh         1 6GA      -0.359100
     24 H1           2.5890    -0.8850     1.3630 hc         1 6GA       0.068700
     25 H2           0.2690     0.8140     2.3420 hc         1 6GA       0.069200
     26 H3           1.5080     0.1270     3.4010 hc         1 6GA       0.069200
     27 H4           1.7750    -2.3420     3.5460 ha         1 6GA       0.147500
     28 H5           0.5570    -4.4870     3.5840 ha         1 6GA       0.144500
     29 H6          -1.4740    -0.5290     1.4510 ha         1 6GA       0.147500
     30 H7          -2.6950    -2.6700     1.4860 ha         1 6GA       0.144500
     31 H8           2.8870    -0.0360    -1.1670 hn         1 6GA       0.317500
     32 H9           0.5310    -0.8970    -2.4890 h1         1 6GA       0.061700
     33 H10          0.5310     0.8720    -2.4970 h1         1 6GA       0.061700
     34 H11          2.2300    -2.1540    -3.6840 ha         1 6GA       0.137000
     35 H12          3.8330    -2.1620    -5.5590 ha         1 6GA       0.133000
     36 H13          4.6360    -0.0320    -6.5040 ha         1 6GA       0.131000
     37 H14          3.8310     2.1090    -5.5810 ha         1 6GA       0.133000
     38 H15          2.2260     2.1180    -3.7090 ha         1 6GA       0.137000
     39 H16          4.4030     0.2850     2.2840 hn         1 6GA       0.319500
     40 H17          5.6810     2.1140     2.4240 ho         1 6GA       0.400000
@<TRIPOS>BOND
     1    23    22 1
     2     5     4 2
     3    22     4 1
     4     4     3 1
     5     6     3 1
     6     6     7 1
     7     3     2 1
     8     1     2 2
     9     7     8 ar
    10     7    10 ar
    11     2    14 1
    12     8     9 ar
    13    10    11 ar
    14     9    12 ar
    15    11    12 ar
    16    14    15 1
    17    12    13 1
    18    15    16 1
    19    21    16 ar
    20    21    20 ar
    21    16    17 ar
    22    20    19 ar
    23    17    18 ar
    24    19    18 ar
    25     3    24 1
    26     6    25 1
    27     6    26 1
    28     8    27 1
    29     9    28 1
    30    10    29 1
    31    11    30 1
    32    14    31 1
    33    15    32 1
    34    15    33 1
    35    17    34 1
    36    18    35 1
    37    19    36 1
    38    20    37 1
    39    21    38 1
    40    22    39 1
    41    23    40 1
@<TRIPOS>SUBSTRUCTURE
     1 6GA         1 TEMP              0 ****  ****    0 ROOT
