@<TRIPOS>MOLECULE
molecule
   48    49     1     0     0
SMALL
bcc


@<TRIPOS>ATOM
      1 C1           0.0000     0.0000     0.0000 c3         1 6GB       0.333900
      2 C2           1.5320     0.0000     0.0000 c3         1 6GB       0.113100
      3 C3           2.0340     0.0000     1.4470 c3         1 6GB       0.115100
      4 C4           1.4520     1.2140     2.1770 c3         1 6GB       0.102100
      5 C5          -0.0760     1.1680     2.0930 c3         1 6GB       0.133100
      6 C6          -0.6640     2.4090     2.7680 c3         1 6GB       0.232400
      7 P           -3.0360     3.4420     3.4310 p5         1 6GB       1.175900
      8 O1P         -2.9000     4.8000     2.5760 o          1 6GB      -0.907500
      9 O2P         -2.6270     3.6970     4.8310 o          1 6GB      -0.907500
     10 O6          -2.0890     2.3080     2.7930 os         1 6GB      -0.567200
     11 O5          -0.4760     1.1370     0.7210 os         1 6GB      -0.399600
     12 O1          -0.4760     0.0560    -1.3460 os         1 6GB      -0.421600
     13 O4           1.8550     1.1870     3.5480 oh         1 6GB      -0.596800
     14 O3           3.4610     0.0720     1.4580 oh         1 6GB      -0.616800
     15 O2           2.0090    -1.1680    -0.6710 oh         1 6GB      -0.608800
     16 C1'         -2.0560    -1.1360    -5.0310 c3         1 6GB       0.338900
     17 O1'         -1.4650    -2.2940    -5.6250 oh         1 6GB      -0.591800
     18 C2'         -3.5720    -1.1750    -5.2360 c3         1 6GB       0.106100
     19 O2'         -3.8660    -1.1350    -6.6330 oh         1 6GB      -0.608800
     20 O5'         -1.7650    -1.1180    -3.6320 os         1 6GB      -0.427600
     21 C5'         -2.2910     0.0180    -2.9420 c3         1 6GB       0.146100
     22 C4'         -3.8160     0.0260    -3.0640 c3         1 6GB       0.111100
     23 O4'         -4.3410     1.1920    -2.4240 oh         1 6GB      -0.578800
     24 C3'         -4.2040     0.0380    -4.5450 c3         1 6GB       0.118100
     25 O3'         -5.6260    -0.0290    -4.6680 oh         1 6GB      -0.604800
     26 C6'         -1.8960    -0.0530    -1.4660 c3         1 6GB       0.152400
     27 H1          -0.3590    -0.9040     0.4780 h2         1 6GB       0.033700
     28 H2           1.8920     0.8870    -0.5070 h1         1 6GB       0.059700
     29 H3           1.7080    -0.9080     1.9410 h1         1 6GB       0.052700
     30 H4           1.8110     2.1220     1.7080 h1         1 6GB       0.052700
     31 H5          -0.4360     0.2760     2.5910 h1         1 6GB       0.051700
     32 H6          -0.3730     3.2930     2.2140 h1         1 6GB       0.029700
     33 H7          -0.2890     2.4790     3.7830 h1         1 6GB       0.029700
     34 H10          2.4120     1.9270     3.7270 ho         1 6GB       0.402000
     35 H11          3.8110    -0.6950     1.8790 ho         1 6GB       0.397000
     36 H12          2.5440    -0.9130    -1.4040 ho         1 6GB       0.398000
     37 H13         -1.6540    -0.2430    -5.4930 h2         1 6GB       0.030700
     38 H16         -4.3300    -1.9180    -6.8790 ho         1 6GB       0.406000
     39 H17         -1.8910     0.9230    -3.3840 h1         1 6GB       0.061700
     40 H18         -4.2190    -0.8630    -2.5930 h1         1 6GB       0.055700
     41 H19         -5.0740     0.9510    -1.8820 ho         1 6GB       0.427000
     42 H20         -3.8380     0.9470    -5.0060 h1         1 6GB       0.056700
     43 H21         -5.9320     0.7040    -5.1770 ho         1 6GB       0.409000
     44 H22         -2.3680     0.7590    -0.9270 h1         1 6GB       0.069700
     45 H23         -2.2220    -0.9990    -1.0510 h1         1 6GB       0.069700
     46 H14         -0.6210    -2.0690    -5.9800 ho         1 6GB       0.407000
     47 O3P         -4.5640     2.9360     3.3940 o          1 6GB      -0.907500
     48 H15         -3.9710    -2.0840    -4.8040 h1         1 6GB       0.064700
@<TRIPOS>BOND
     1     9     7 1
     2     8     7 1
     3    13     4 1
     4     7    47 1
     5     7    10 1
     6    10     6 1
     7     4     5 1
     8     4     3 1
     9    14     3 1
    10     5     6 1
    11     5    11 1
    12     3     2 1
    13    11     1 1
    14     2     1 1
    15     2    15 1
    16     1    12 1
    17    20    16 1
    18    20    21 1
    19    26    12 1
    20    26    21 1
    21    17    16 1
    22    16    18 1
    23    21    22 1
    24    18    19 1
    25    18    24 1
    26    22    24 1
    27    22    23 1
    28    24    25 1
    29     1    27 1
    30     2    28 1
    31     3    29 1
    32     4    30 1
    33     5    31 1
    34     6    32 1
    35     6    33 1
    36    13    34 1
    37    14    35 1
    38    15    36 1
    39    16    37 1
    40    17    46 1
    41    18    48 1
    42    19    38 1
    43    21    39 1
    44    22    40 1
    45    23    41 1
    46    24    42 1
    47    25    43 1
    48    26    44 1
    49    26    45 1
@<TRIPOS>SUBSTRUCTURE
     1 6GB         1 TEMP              0 ****  ****    0 ROOT
