@<TRIPOS>MOLECULE
6GB
   48    49     1     0     0
SMALL
bcc


@<TRIPOS>ATOM
      1 C1          0.5650   -0.5750    0.1170 c3        1 6GB      0.353900
      2 C2          2.0350   -0.1270    0.1930 c3        1 6GB      0.121100
      3 C3          2.2140    0.6370    1.5030 c3        1 6GB      0.015100
      4 C4          1.2460    1.8800    1.5550 c3        1 6GB      0.374800
      5 C5         -0.1890    1.2740    1.4790 c3        1 6GB      0.055100
      6 C6         -1.2660    2.3710    1.4030 c3        1 6GB      0.194400
      7 P          -3.7300    1.7060    0.7840 p5        1 6GB      1.451800
      8 O1P        -4.1850    2.4010    2.0020 o         1 6GB     -0.848000
      9 O2P        -3.3530    0.1570    1.1460 oh        1 6GB     -0.801400
     10 O6         -2.1940    2.1360    0.3840 os        1 6GB     -0.606200
     11 O5         -0.3590    0.4770    0.2930 os        1 6GB     -0.465600
     12 O1          0.2940   -0.9800   -1.2200 os        1 6GB     -0.418600
     13 O4          1.5000    2.6210    2.6100 o         1 6GB     -0.876500
     14 O3          3.5630    1.0610    1.6120 oh        1 6GB     -0.660800
     15 O2          2.8450   -1.3010    0.1460 oh        1 6GB     -0.628800
     16 C1'        -3.3930   -1.3470   -4.2180 c3        1 6GB      0.351900
     17 O1'        -4.2600   -2.4450   -4.3510 oh        1 6GB     -0.602800
     18 C2'        -4.1160   -0.0340   -3.8860 c3        1 6GB      0.047100
     19 O2'        -4.9120    0.3240   -5.0060 oh        1 6GB     -0.617800
     20 O5'        -2.5830   -1.7590   -3.1290 os        1 6GB     -0.469600
     21 C5'        -1.6010   -0.8090   -2.6930 c3        1 6GB      0.118100
     22 C4'        -2.1770    0.5970   -2.4270 c3        1 6GB      0.100100
     23 O4'        -1.0970    1.5080   -2.3640 oh        1 6GB     -0.613800
     24 C3'        -3.0670    1.0530   -3.5930 c3        1 6GB      0.130100
     25 O3'        -3.7370    2.2700   -3.3560 oh        1 6GB     -0.640800
     26 C6'        -1.0330   -1.4540   -1.4180 c3        1 6GB      0.141400
     27 H1          0.3570   -1.4110    0.8420 h2        1 6GB      0.022700
     28 H2          2.2890    0.5160   -0.6920 h1        1 6GB      0.061700
     29 H3          2.0080   -0.0510    2.3690 h1        1 6GB      0.019700
     30 H4          1.4030    2.4210    0.5620 h1        1 6GB     -0.065300
     31 H5         -0.3760    0.6110    2.3670 h1        1 6GB      0.014700
     32 H6         -1.7980    2.4380    2.3920 h1        1 6GB      0.043700
     33 H7         -0.7570    3.3510    1.1860 h1        1 6GB      0.043700
     34 H10        -2.4280   -0.0450    1.0420 ho        1 6GB      0.440000
     35 H11         3.5160    1.9370    2.0320 ho        1 6GB      0.433000
     36 H12         3.6700   -1.0640    0.5860 ho        1 6GB      0.403000
     37 H13        -2.8110   -1.2820   -5.1760 h2        1 6GB      0.064700
     38 H16        -5.1070    1.2660   -4.8930 ho        1 6GB      0.417000
     39 H17        -0.7980   -0.7340   -3.4770 h1        1 6GB      0.050700
     40 H18        -2.7780    0.6160   -1.4660 h1        1 6GB      0.112700
     41 H19        -0.9020    1.6470   -1.4200 ho        1 6GB      0.463000
     42 H20        -2.4410    1.2410   -4.5100 h1        1 6GB      0.056700
     43 H21        -4.0270    2.2780   -2.4240 ho        1 6GB      0.478000
     44 H22        -0.9600   -2.5670   -1.5660 h1        1 6GB      0.047700
     45 H23        -1.7040   -1.2350   -0.5480 h1        1 6GB      0.047700
     46 H14        -4.6810   -2.5820   -3.4910 ho        1 6GB      0.412000
     47 O3P        -4.4510    1.6990   -0.5140 o         1 6GB     -0.848000
     48 H15        -4.7820   -0.1680   -2.9880 h1        1 6GB      0.079700
@<TRIPOS>BOND
     1    1    2 1   
     2    1   11 1   
     3    1   12 1   
     4    1   27 1   
     5    2    3 1   
     6    2   15 1   
     7    2   28 1   
     8    3    4 1   
     9    3   14 1   
    10    3   29 1   
    11    4    5 1   
    12    4   13 1   
    13    4   30 1   
    14    5    6 1   
    15    5   11 1   
    16    5   31 1   
    17    6   10 1   
    18    6   32 1   
    19    6   33 1   
    20    7    8 1   
    21    7    9 1   
    22    7   10 1   
    23    7   47 1   
    24    9   34 1   
    25   12   26 1   
    26   14   35 1   
    27   15   36 1   
    28   16   17 1   
    29   16   18 1   
    30   16   20 1   
    31   16   37 1   
    32   17   46 1   
    33   18   19 1   
    34   18   24 1   
    35   18   48 1   
    36   19   38 1   
    37   20   21 1   
    38   21   22 1   
    39   21   26 1   
    40   21   39 1   
    41   22   23 1   
    42   22   24 1   
    43   22   40 1   
    44   23   41 1   
    45   24   25 1   
    46   24   42 1   
    47   25   43 1   
    48   26   44 1   
    49   26   45 1   
@<TRIPOS>SUBSTRUCTURE
     1 6GB         1 TEMP              0 ****  ****    0 ROOT
