@<TRIPOS>MOLECULE
6GC
   50    52     1     0     0
SMALL
bcc


@<TRIPOS>ATOM
      1 C1           0.0000     0.0000     0.0000 ca         1 6GC      -0.060000
      2 C2           2.2220     5.1550    -0.5420 ca         1 6GC       0.256100
      3 C3           2.9940     4.8560    -1.6510 ca         1 6GC      -0.317000
      4 C7           1.5540     4.1290     0.1480 ca         1 6GC      -0.220600
      5 C8           2.5780     1.1180    -1.8660 cc         1 6GC       0.313500
      6 C14          2.4090    -1.0880    -1.9420 c          1 6GC       0.543500
      7 C16          1.3880     0.0000     0.0000 ca         1 6GC      -0.120400
      8 C19         -0.0000     0.0000     2.3950 ca         1 6GC      -0.054000
      9 C20          0.7320     4.4460     1.3280 c          1 6GC       0.624700
     10 C24         -2.0600     5.5370     2.5440 c3         1 6GC      -0.054400
     11 C27         -3.6180     7.0850     3.7360 c3         1 6GC       0.006900
     12 C4           3.1130     3.5470    -2.0850 ca         1 6GC       0.248100
     13 C5           2.4510     2.5150    -1.4010 ca         1 6GC      -0.190900
     14 C6           1.6730     2.8080    -0.2870 ca         1 6GC      -0.039000
     15 N9           3.1750     0.7300    -2.9600 nd         1 6GC      -0.585300
     16 N10          2.0910     0.0000    -1.2130 n          1 6GC       0.129500
     17 O12          2.1130     6.4380    -0.1170 oh         1 6GC      -0.457100
     18 N13          3.0820    -0.6660    -3.0330 ns         1 6GC       0.085100
     19 C17          2.0790     0.0000     1.2060 ca         1 6GC       0.133900
     20 C18          1.3820     0.0010     2.4010 ca         1 6GC      -0.124000
     21 N21         -0.5370     3.9990     1.4050 n          1 6GC      -0.159800
     22 O22          1.1970     5.1130     2.2330 o          1 6GC      -0.631100
     23 C23         -1.3140     4.2050     2.6300 c3         1 6GC       0.057000
     24 C25         -0.6900     0.0060     1.1970 ca         1 6GC      -0.115000
     25 C26         -1.1400     3.3060     0.2630 c3         1 6GC       0.055300
     26 C28         -2.8710     5.7520     3.8220 c3         1 6GC      -0.023400
     27 F29          3.4300     0.0000     1.2120 f          1 6GC      -0.114900
     28 H1          -0.5420     0.0040    -0.9380 ha         1 6GC       0.121000
     29 H2           3.5070     5.6490    -2.1810 ha         1 6GC       0.125000
     30 H3          -0.5450     0.0030     3.3320 ha         1 6GC       0.112000
     31 H4          -1.3460     6.3440     2.4290 hc         1 6GC       0.025700
     32 H5          -2.7280     5.5220     1.6910 hc         1 6GC       0.025700
     33 H6          -2.9030     7.8930     3.6350 hc         1 6GC       0.001033
     34 H7          -4.2760     7.0750     2.8750 hc         1 6GC       0.001033
     35 H8          -4.2020     7.2300     4.6360 hc         1 6GC       0.001033
     36 H9           1.1600     2.0140     0.2420 ha         1 6GC       0.140000
     37 H10          4.5360     3.9200    -3.2760 ho         1 6GC       0.400000
     38 H11          2.9010     6.9090    -0.3330 ho         1 6GC       0.408000
     39 H12          3.4490    -1.2460    -3.7620 hn         1 6GC       0.224500
     40 H13          1.9190    -0.0020     3.3410 ha         1 6GC       0.129000
     41 H14         -0.6460     4.2200     3.4830 h1         1 6GC       0.028700
     42 H15         -2.0270     3.3980     2.7450 h1         1 6GC       0.028700
     43 H16         -1.7730     0.0060     1.1960 ha         1 6GC       0.114000
     44 H17         -0.9570     3.8740    -0.6410 h1         1 6GC       0.014367
     45 H18         -2.2080     3.2120     0.4210 h1         1 6GC       0.014367
     46 H19         -0.7010     2.3200     0.1660 h1         1 6GC       0.014367
     47 H20         -3.5850     4.9450     3.9360 hc         1 6GC       0.011700
     48 H21         -2.2030     5.7660     4.6750 hc         1 6GC       0.011700
     49 O15          2.1360    -2.2420    -1.6670 o          1 6GC      -0.702500
     50 O11          3.8720     3.2590    -3.1720 oh         1 6GC      -0.439100
@<TRIPOS>BOND
     1     1     7 ar  
     2     1    24 ar  
     3     1    28 1   
     4     2     3 ar  
     5     2     4 ar  
     6     2    17 1   
     7     3    12 ar  
     8     3    29 1   
     9     4     9 1   
    10     4    14 ar  
    11     5    13 1   
    12     5    15 2   
    13     5    16 1   
    14     6    16 1   
    15     6    18 1   
    16     6    49 2   
    17     7    16 1   
    18     7    19 ar  
    19     8    20 ar  
    20     8    24 ar  
    21     8    30 1   
    22     9    21 1   
    23     9    22 2   
    24    10    23 1   
    25    10    26 1   
    26    10    31 1   
    27    10    32 1   
    28    11    26 1   
    29    11    33 1   
    30    11    34 1   
    31    11    35 1   
    32    12    13 ar  
    33    12    50 1   
    34    13    14 ar  
    35    14    36 1   
    36    15    18 1   
    37    17    38 1   
    38    18    39 1   
    39    19    20 ar  
    40    19    27 1   
    41    20    40 1   
    42    21    23 1   
    43    21    25 1   
    44    23    41 1   
    45    23    42 1   
    46    24    43 1   
    47    25    44 1   
    48    25    45 1   
    49    25    46 1   
    50    26    47 1   
    51    26    48 1   
    52    37    50 1   
@<TRIPOS>SUBSTRUCTURE
     1 6GC         1 TEMP              0 ****  ****    0 ROOT
