@<TRIPOS>MOLECULE
molecule
   50    52     1     0     0
SMALL
bcc


@<TRIPOS>ATOM
      1 C1           0.0000     0.0000     0.0000 ca         1 6GC      -0.097000
      2 C2           2.2220     5.1550    -0.5420 ca         1 6GC       0.230100
      3 C3           2.9940     4.8560    -1.6510 ca         1 6GC      -0.319000
      4 C7           1.5540     4.1290     0.1480 ca         1 6GC      -0.201600
      5 C8           2.5780     1.1180    -1.8660 cc         1 6GC       0.436500
      6 C14          2.4090    -1.0880    -1.9420 c          1 6GC       0.771500
      7 C16          1.3880     0.0000     0.0000 ca         1 6GC       0.011600
      8 C19         -0.0000     0.0000     2.3950 ca         1 6GC      -0.090000
      9 C20          0.7320     4.4460     1.3280 c          1 6GC       0.688700
     10 C24         -2.0600     5.5370     2.5440 c3         1 6GC      -0.103400
     11 C27         -3.6180     7.0850     3.7360 c3         1 6GC      -0.090100
     12 C4           3.1130     3.5470    -2.0850 ca         1 6GC       0.223100
     13 C5           2.4510     2.5150    -1.4010 ca         1 6GC      -0.177900
     14 C6           1.6730     2.8080    -0.2870 ca         1 6GC      -0.034000
     15 N9           3.1750     0.7300    -2.9600 nd         1 6GC      -0.460300
     16 N10          2.0910     0.0000    -1.2130 n          1 6GC      -0.307500
     17 O12          2.1130     6.4380    -0.1170 oh         1 6GC      -0.474100
     18 N13          3.0820    -0.6660    -3.0330 ns         1 6GC      -0.330900
     19 C17          2.0790     0.0000     1.2060 ca         1 6GC       0.150900
     20 C18          1.3820     0.0010     2.4010 ca         1 6GC      -0.161000
     21 N21         -0.5370     3.9990     1.4050 n          1 6GC      -0.492800
     22 O22          1.1970     5.1130     2.2330 o          1 6GC      -0.588100
     23 C23         -1.3140     4.2050     2.6300 c3         1 6GC       0.113000
     24 C25         -0.6900     0.0060     1.1970 ca         1 6GC      -0.145000
     25 C26         -1.1400     3.3060     0.2630 c3         1 6GC       0.087300
     26 C28         -2.8710     5.7520     3.8220 c3         1 6GC      -0.083400
     27 F29          3.4300     0.0000     1.2120 f          1 6GC      -0.120900
     28 H1          -0.5420     0.0040    -0.9380 ha         1 6GC       0.153000
     29 H2           3.5070     5.6490    -2.1810 ha         1 6GC       0.145000
     30 H3          -0.5450     0.0030     3.3320 ha         1 6GC       0.144000
     31 H4          -1.3460     6.3440     2.4290 hc         1 6GC       0.053200
     32 H5          -2.7280     5.5220     1.6910 hc         1 6GC       0.053200
     33 H6          -2.9030     7.8930     3.6350 hc         1 6GC       0.034033
     34 H7          -4.2760     7.0750     2.8750 hc         1 6GC       0.034033
     35 H8          -4.2020     7.2300     4.6360 hc         1 6GC       0.034033
     36 H9           1.1600     2.0140     0.2420 ha         1 6GC       0.165000
     37 H10          4.5360     3.9200    -3.2760 ho         1 6GC       0.426000
     38 H11          2.9010     6.9090    -0.3330 ho         1 6GC       0.430000
     39 H12          3.4490    -1.2460    -3.7620 hn         1 6GC       0.394500
     40 H13          1.9190    -0.0020     3.3410 ha         1 6GC       0.157000
     41 H14         -0.6460     4.2200     3.4830 h1         1 6GC       0.055200
     42 H15         -2.0270     3.3980     2.7450 h1         1 6GC       0.055200
     43 H16         -1.7730     0.0060     1.1960 ha         1 6GC       0.142000
     44 H17         -0.9570     3.8740    -0.6410 h1         1 6GC       0.040367
     45 H18         -2.2080     3.2120     0.4210 h1         1 6GC       0.040367
     46 H19         -0.7010     2.3200     0.1660 h1         1 6GC       0.040367
     47 H20         -3.5850     4.9450     3.9360 hc         1 6GC       0.039200
     48 H21         -2.2030     5.7660     4.6750 hc         1 6GC       0.039200
     49 O15          2.1360    -2.2420    -1.6670 o          1 6GC      -0.646500
     50 O11          3.8720     3.2590    -3.1720 oh         1 6GC      -0.463100
@<TRIPOS>BOND
     1    17     2 1   
     2    22     9 2   
     3     2     3 ar  
     4     2     4 ar  
     5     9     4 1   
     6     9    21 1   
     7     3    12 ar  
     8    24     8 ar  
     9    24     1 ar  
    10     4    14 ar  
    11     8    20 ar  
    12    23    21 1   
    13    23    10 1   
    14    21    25 1   
    15     1     7 ar  
    16    12    50 1   
    17    12    13 ar  
    18    20    19 ar  
    19    14    13 ar  
    20    26    10 1   
    21    26    11 1   
    22    13     5 1   
    23     7    19 ar  
    24     7    16 1   
    25    19    27 1   
    26     5    16 1   
    27     5    15 2   
    28    16     6 1   
    29    15    18 1   
    30     6    49 2   
    31     6    18 1   
    32     1    28 1   
    33     3    29 1   
    34     8    30 1   
    35    10    31 1   
    36    10    32 1   
    37    11    33 1   
    38    11    34 1   
    39    11    35 1   
    40    14    36 1   
    41    50    37 1   
    42    17    38 1   
    43    18    39 1   
    44    20    40 1   
    45    23    41 1   
    46    23    42 1   
    47    24    43 1   
    48    25    44 1   
    49    25    45 1   
    50    25    46 1   
    51    26    47 1   
    52    26    48 1   
@<TRIPOS>SUBSTRUCTURE
     1 6GC         1 TEMP              0 ****  ****    0 ROOT
