@<TRIPOS>MOLECULE
6GE
   39    41     1     0     0
SMALL
bcc


@<TRIPOS>ATOM
      1 N1           0.0000     0.0000     0.0000 nu         1 6GE      -0.217000
      2 C4           4.1680     0.0000     0.0000 ca         1 6GE      -0.202000
      3 C5           3.4760     0.0000     1.2030 ca         1 6GE       0.172100
      4 C6           2.0900    -0.0000     1.2050 ca         1 6GE      -0.215000
      5 C7           1.3970     0.0000     0.0020 ca         1 6GE       0.052600
      6 C8          -0.6950    -0.1230     1.1940 ca         1 6GE       0.071600
      7 C10         -1.0170    -1.1330     3.3460 ca         1 6GE       0.462200
      8 C13         -4.0580     2.2170     2.0460 ca         1 6GE      -0.013000
      9 C15         -2.2940     1.6230     0.5380 ca         1 6GE       0.038000
     10 C17         -5.1550     2.6470    -1.3580 c3         1 6GE       0.028700
     11 O3          -2.8180     3.9060    -1.0870 o          1 6GE      -0.587300
     12 O2          -4.6450     4.5310     0.4610 o          1 6GE      -0.587300
     13 C14         -3.3910     2.3750     0.8340 ca         1 6GE      -0.159500
     14 C12         -3.6350     1.3080     2.9670 ca         1 6GE      -0.167300
     15 C16         -1.8310     0.6780     1.4630 ca         1 6GE      -0.213300
     16 C11         -2.5070     0.5140     2.6970 ca         1 6GE       0.433600
     17 N2          -2.0690    -0.3850     3.5840 nb         1 6GE      -0.607000
     18 C9          -0.3040    -1.0370     2.1590 ca         1 6GE      -0.295300
     19 C2           2.0950     0.0020    -1.1990 ca         1 6GE      -0.173300
     20 C1           1.3440     0.0010    -2.5060 c3         1 6GE       0.070200
     21 O1           4.1580    -0.0010     2.3790 oh         1 6GE      -0.496100
     22 C3           3.4760     0.0060    -1.1970 ca         1 6GE      -0.030000
     23 H1          -0.4990     0.0440    -0.8670 hn         1 6GE       0.297800
     24 H2           5.2510     0.0020    -0.0010 ha         1 6GE       0.114000
     25 H3           1.5490     0.0000     2.1430 ha         1 6GE       0.146000
     26 H4          -0.7010    -1.8510     4.0930 h4         1 6GE      -0.020900
     27 H5          -4.9280     2.8270     2.2590 ha         1 6GE       0.125000
     28 H6          -1.7830     1.7540    -0.4090 ha         1 6GE       0.122000
     29 H7          -5.7040     3.3410    -1.9830 h1         1 6GE       0.059700
     30 H8          -4.6550     1.9170    -1.9830 h1         1 6GE       0.059700
     31 H9          -5.8430     2.1410    -0.6910 h1         1 6GE       0.059700
     32 H10         -4.1650     1.1970     3.9050 ha         1 6GE       0.124000
     33 H11          0.5600    -1.6690     1.9910 ha         1 6GE       0.142000
     34 H12          0.6770    -0.8520    -2.5390 hc         1 6GE       0.007033
     35 H13          2.0490    -0.0590    -3.3270 hc         1 6GE       0.007033
     36 H14          0.7670     0.9140    -2.5910 hc         1 6GE       0.007033
     37 H15          4.7070     0.7640     2.4240 ho         1 6GE       0.406000
     38 H16          4.0180     0.0070    -2.1340 ha         1 6GE       0.105000
     39 S           -3.9730     3.5620    -0.3310 sy         1 6GE       0.872300
@<TRIPOS>BOND
     1     1     5 1   
     2     1     6 1   
     3     1    23 1   
     4     2     3 ar  
     5     2    22 ar  
     6     2    24 1   
     7     3     4 ar  
     8     3    21 1   
     9     4     5 ar  
    10     4    25 1   
    11     5    19 ar  
    12     6    15 ar  
    13     6    18 ar  
    14     7    17 ar  
    15     7    18 ar  
    16     7    26 1   
    17     8    13 ar  
    18     8    14 ar  
    19     8    27 1   
    20     9    13 ar  
    21     9    15 ar  
    22     9    28 1   
    23    10    29 1   
    24    10    30 1   
    25    10    31 1   
    26    10    39 1   
    27    11    39 2   
    28    12    39 2   
    29    13    39 1   
    30    14    16 ar  
    31    14    32 1   
    32    15    16 ar  
    33    16    17 ar  
    34    18    33 1   
    35    19    20 1   
    36    19    22 ar  
    37    20    34 1   
    38    20    35 1   
    39    20    36 1   
    40    21    37 1   
    41    22    38 1   
@<TRIPOS>SUBSTRUCTURE
     1 6GE         1 TEMP              0 ****  ****    0 ROOT
