@<TRIPOS>MOLECULE
molecule
   52    55     1     0     0
SMALL
bcc


@<TRIPOS>ATOM
      1 C10          0.0000     0.0000     0.0000 ca         1 6GF       0.762200
      2 C13         -2.5560     1.5640    -1.2460 ca         1 6GF       0.397600
      3 C15         -3.2090     3.4810    -2.5100 ca         1 6GF      -0.094000
      4 C17         -2.9500     3.5450    -0.1380 ca         1 6GF       0.422200
      5 C20          1.3220    -3.5410    -2.6550 ca         1 6GF       0.422200
      6 C21          0.4340    -4.1890    -3.4920 ca         1 6GF      -0.252300
      7 C22         -0.6370    -3.4820    -4.0180 ca         1 6GF      -0.094000
      8 C01          7.7760    -0.0440     3.9100 c3         1 6GF       0.128700
      9 C02          6.0350    -0.0360     2.2920 ca         1 6GF       0.154100
     10 C07          5.5740    -0.0400     0.9820 ca         1 6GF      -0.208500
     11 C06          4.2190    -0.0280     0.7260 ca         1 6GF      -0.050500
     12 C03          5.1340    -0.0290     3.3480 ca         1 6GF      -0.208500
     13 C04          3.7780    -0.0180     3.1000 ca         1 6GF      -0.050500
     14 C05          3.3120    -0.0140     1.7850 cp         1 6GF      -0.169500
     15 C08          2.0560     0.0000     1.2260 cp         1 6GF       0.559800
     16 C11          1.3950     0.0000     0.0000 ca         1 6GF      -0.429600
     17 N01          1.3390    -0.0000     2.3500 nb         1 6GF      -0.832000
     18 C09          0.0170     0.0050     2.3080 ca         1 6GF       0.954900
     19 N02         -0.6940     0.0050     3.4970 nv         1 6GF      -1.030500
     20 N03         -0.6470     0.0050     1.1610 nb         1 6GF      -0.824000
     21 N04         -0.7010     0.0000    -1.1950 nh         1 6GF      -0.814300
     22 C18          0.0170    -0.1100    -2.4670 c3         1 6GF       0.194000
     23 C19          0.1580    -1.5630    -2.8410 ca         1 6GF       0.397600
     24 N06          1.1600    -2.2670    -2.3540 nb         1 6GF      -0.667000
     25 C23         -0.7740    -2.1450    -3.6800 ca         1 6GF      -0.246300
     26 C12         -2.1620     0.1100    -1.1870 c3         1 6GF       0.194000
     27 N05         -2.6150     2.2690    -0.1340 nb         1 6GF      -0.667000
     28 C16         -3.2650     4.1900    -1.3190 ca         1 6GF      -0.252300
     29 C14         -2.8470     2.1430    -2.4660 ca         1 6GF      -0.246300
     30 H1          -3.4460     3.9600    -3.4520 ha         1 6GF       0.136500
     31 H2          -2.9890     4.0910     0.7970 h4         1 6GF       0.025600
     32 H3           2.1600    -4.0870    -2.2380 h4         1 6GF       0.025600
     33 H4           0.5730    -5.2360    -3.7340 ha         1 6GF       0.138000
     34 H5          -1.3510    -3.9640    -4.6750 ha         1 6GF       0.136500
     35 H6           7.3930     0.8440     4.3980 h1         1 6GF       0.041367
     36 H7           7.4110    -0.9250     4.4250 h1         1 6GF       0.041367
     37 H8           8.8580    -0.0330     3.9370 h1         1 6GF       0.041367
     38 H9           6.2800    -0.0510     0.1600 ha         1 6GF       0.138000
     39 H10          3.8600    -0.0280    -0.2960 ha         1 6GF       0.149000
     40 H11          5.4970    -0.0320     4.3690 ha         1 6GF       0.138000
     41 H12          3.0760    -0.0090     3.9240 ha         1 6GF       0.149000
     42 H13          1.9500    -0.0040    -0.9300 ha         1 6GF       0.151000
     43 H14         -0.4580     0.6550     4.2200 hn         1 6GF       0.440800
     44 H15         -1.4010    -0.6850     3.6560 hn         1 6GF       0.440800
     45 H16          1.0000     0.3340    -2.3660 h1         1 6GF       0.070700
     46 H17         -0.5360     0.4100    -3.2400 h1         1 6GF       0.070700
     47 H18         -1.5990    -1.5620    -4.0720 ha         1 6GF       0.132000
     48 H19         -2.5530    -0.3330    -0.2780 h1         1 6GF       0.070700
     49 H20         -2.5680    -0.4090    -2.0460 h1         1 6GF       0.070700
     50 H21         -3.5410     5.2370    -1.3160 ha         1 6GF       0.138000
     51 H22         -2.7930     1.5600    -3.3770 ha         1 6GF       0.132000
     52 O01          7.3700    -0.0480     2.5410 os         1 6GF      -0.328900
@<TRIPOS>BOND
     1    19    18 1
     2     8    52 1
     3    12    13 ar
     4    12     9 ar
     5    13    14 ar
     6    17    18 ar
     7    17    15 ar
     8    18    20 ar
     9    52     9 1
    10     9    10 ar
    11    14    15 1
    12    14    11 ar
    13    15    16 ar
    14    20     1 ar
    15    10    11 ar
    16    16     1 ar
    17     1    21 1
    18     7    25 ar
    19     7     6 ar
    20    25    23 ar
    21     6     5 ar
    22    23    22 1
    23    23    24 ar
    24    21    22 1
    25    21    26 1
    26     5    24 ar
    27    26     2 1
    28    27     2 ar
    29    27     4 ar
    30     2    29 ar
    31     4    28 ar
    32    29     3 ar
    33    28     3 ar
    34     3    30 1
    35     4    31 1
    36     5    32 1
    37     6    33 1
    38     7    34 1
    39     8    35 1
    40     8    36 1
    41     8    37 1
    42    10    38 1
    43    11    39 1
    44    12    40 1
    45    13    41 1
    46    16    42 1
    47    19    43 1
    48    19    44 1
    49    22    45 1
    50    22    46 1
    51    25    47 1
    52    26    48 1
    53    26    49 1
    54    28    50 1
    55    29    51 1
@<TRIPOS>SUBSTRUCTURE
     1 6GF         1 TEMP              0 ****  ****    0 ROOT
