@<TRIPOS>MOLECULE
6GF
   52    55     1     0     0
SMALL
bcc


@<TRIPOS>ATOM
      1 C10          0.0000     0.0000     0.0000 ca         1 6GF       0.591200
      2 C13         -2.5560     1.5640    -1.2460 ca         1 6GF       0.342100
      3 C15         -3.2090     3.4810    -2.5100 ca         1 6GF      -0.069500
      4 C17         -2.9500     3.5450    -0.1380 ca         1 6GF       0.402700
      5 C20          1.3220    -3.5410    -2.6550 ca         1 6GF       0.402700
      6 C21          0.4340    -4.1890    -3.4920 ca         1 6GF      -0.217800
      7 C22         -0.6370    -3.4820    -4.0180 ca         1 6GF      -0.069500
      8 C01          7.7760    -0.0440     3.9100 c3         1 6GF       0.244700
      9 C02          6.0350    -0.0360     2.2920 ca         1 6GF       0.163100
     10 C07          5.5740    -0.0400     0.9820 ca         1 6GF      -0.195500
     11 C06          4.2190    -0.0280     0.7260 ca         1 6GF      -0.022500
     12 C03          5.1340    -0.0290     3.3480 ca         1 6GF      -0.195500
     13 C04          3.7780    -0.0180     3.1000 ca         1 6GF      -0.022500
     14 C05          3.3120    -0.0140     1.7850 cp         1 6GF      -0.183500
     15 C08          2.0560     0.0000     1.2260 cp         1 6GF       0.540800
     16 C11          1.3950     0.0000     0.0000 ca         1 6GF      -0.420600
     17 N01          1.3390    -0.0000     2.3500 nb         1 6GF      -0.765000
     18 C09          0.0170     0.0050     2.3080 ca         1 6GF       0.746900
     19 N02         -0.6940     0.0050     3.4970 nv         1 6GF      -0.570500
     20 N03         -0.6470     0.0050     1.1610 nb         1 6GF      -0.717000
     21 N04         -0.7010     0.0000    -1.1950 nh         1 6GF      -0.457300
     22 C18          0.0170    -0.1100    -2.4670 c3         1 6GF       0.121000
     23 C19          0.1580    -1.5630    -2.8410 ca         1 6GF       0.342100
     24 N06          1.1600    -2.2670    -2.3540 nb         1 6GF      -0.549500
     25 C23         -0.7740    -2.1450    -3.6800 ca         1 6GF      -0.211800
     26 C12         -2.1620     0.1100    -1.1870 c3         1 6GF       0.121000
     27 N05         -2.6150     2.2690    -0.1340 nb         1 6GF      -0.549500
     28 C16         -3.2650     4.1900    -1.3190 ca         1 6GF      -0.217800
     29 C14         -2.8470     2.1430    -2.4660 ca         1 6GF      -0.211800
     30 H1          -3.4460     3.9600    -3.4520 ha         1 6GF       0.108000
     31 H2          -2.9890     4.0910     0.7970 h4         1 6GF      -0.017900
     32 H3           2.1600    -4.0870    -2.2380 h4         1 6GF      -0.017900
     33 H4           0.5730    -5.2360    -3.7340 ha         1 6GF       0.113000
     34 H5          -1.3510    -3.9640    -4.6750 ha         1 6GF       0.108000
     35 H6           7.3930     0.8440     4.3980 h1         1 6GF      -0.002967
     36 H7           7.4110    -0.9250     4.4250 h1         1 6GF      -0.002967
     37 H8           8.8580    -0.0330     3.9370 h1         1 6GF      -0.002967
     38 H9           6.2800    -0.0510     0.1600 ha         1 6GF       0.117000
     39 H10          3.8600    -0.0280    -0.2960 ha         1 6GF       0.119000
     40 H11          5.4970    -0.0320     4.3690 ha         1 6GF       0.117000
     41 H12          3.0760    -0.0090     3.9240 ha         1 6GF       0.119000
     42 H13          1.9500    -0.0040    -0.9300 ha         1 6GF       0.143000
     43 H14         -0.4580     0.6550     4.2200 hn         1 6GF       0.271800
     44 H15         -1.4010    -0.6850     3.6560 hn         1 6GF       0.271800
     45 H16          1.0000     0.3340    -2.3660 h1         1 6GF       0.039450
     46 H17         -0.5360     0.4100    -3.2400 h1         1 6GF       0.039450
     47 H18         -1.5990    -1.5620    -4.0720 ha         1 6GF       0.111500
     48 H19         -2.5530    -0.3330    -0.2780 h1         1 6GF       0.039450
     49 H20         -2.5680    -0.4090    -2.0460 h1         1 6GF       0.039450
     50 H21         -3.5410     5.2370    -1.3160 ha         1 6GF       0.113000
     51 H22         -2.7930     1.5600    -3.3770 ha         1 6GF       0.111500
     52 O01          7.3700    -0.0480     2.5410 os         1 6GF      -0.308900
@<TRIPOS>BOND
     1     1    16 ar  
     2     1    20 ar  
     3     1    21 1   
     4     2    26 1   
     5     2    27 ar  
     6     2    29 ar  
     7     3    28 ar  
     8     3    29 ar  
     9     3    30 1   
    10     4    27 ar  
    11     4    28 ar  
    12     4    31 1   
    13     5     6 ar  
    14     5    24 ar  
    15     5    32 1   
    16     6     7 ar  
    17     6    33 1   
    18     7    25 ar  
    19     7    34 1   
    20     8    35 1   
    21     8    36 1   
    22     8    37 1   
    23     8    52 1   
    24     9    10 ar  
    25     9    12 ar  
    26     9    52 1   
    27    10    11 ar  
    28    10    38 1   
    29    11    14 ar  
    30    11    39 1   
    31    12    13 ar  
    32    12    40 1   
    33    13    14 ar  
    34    13    41 1   
    35    14    15 1   
    36    15    16 ar  
    37    15    17 ar  
    38    16    42 1   
    39    17    18 ar  
    40    18    19 1   
    41    18    20 ar  
    42    19    43 1   
    43    19    44 1   
    44    21    22 1   
    45    21    26 1   
    46    22    23 1   
    47    22    45 1   
    48    22    46 1   
    49    23    24 ar  
    50    23    25 ar  
    51    25    47 1   
    52    26    48 1   
    53    26    49 1   
    54    28    50 1   
    55    29    51 1   
@<TRIPOS>SUBSTRUCTURE
     1 6GF         1 TEMP              0 ****  ****    0 ROOT
