@<TRIPOS>MOLECULE
molecule
   79    83     1     0     0
SMALL
bcc


@<TRIPOS>ATOM
      1 O28          0.0000     0.0000     0.0000 o          1 6GG      -0.857300
      2 C25          1.2080     0.0000     0.0000 c          1 6GG       0.889600
      3 O26          1.8790     0.0000     1.1630 o          1 6GG      -0.857300
      4 C24          1.9620    -0.0060    -1.3050 c3         1 6GG      -0.168400
      5 C23          0.9680    -0.0110    -2.4680 c3         1 6GG      -0.134400
      6 C21          1.7210    -0.0180    -3.7730 c          1 6GG       0.648100
      7 O22          2.9350    -0.0170    -3.7730 o          1 6GG      -0.624100
      8 N20          1.0470    -0.0230    -4.9400 ns         1 6GG      -0.605900
      9 C19          1.7800    -0.0280    -6.2090 c3         1 6GG       0.113000
     10 C17          0.7860    -0.0340    -7.3720 c3         1 6GG      -0.101400
     11 C16          1.5510    -0.0400    -8.6970 c3         1 6GG      -0.076400
     12 C13          0.5570    -0.0460    -9.8600 c3         1 6GG      -0.079400
     13 C12          1.3210    -0.0520   -11.1850 c3         1 6GG      -0.085400
     14 C3           0.3280    -0.0570   -12.3480 c3         1 6GG       0.144400
     15 O1           1.0420    -0.0630   -13.5860 os         1 6GG      -0.439900
     16 C60          0.3070    -0.0690   -14.7180 c          1 6GG       0.651300
     17 O2          -0.9090    -0.0680   -14.6540 o          1 6GG      -0.503000
     18 C48          0.9500    -0.0740   -15.9810 cc         1 6GG      -0.100300
     19 N49          2.3170    -0.0750   -16.1870 na         1 6GG      -0.157400
     20 C46          2.5940    -0.0810   -17.5350 ca         1 6GG       0.000800
     21 C56          3.7860    -0.0850   -18.2550 ca         1 6GG      -0.153000
     22 C57          3.7560    -0.0910   -19.6320 ca         1 6GG       0.037400
     23 Cl1          5.2440    -0.0960   -20.5250 cl         1 6GG      -0.107400
     24 C44          0.3100    -0.0850   -17.2140 cd         1 6GG       0.021600
     25 C45          1.3710    -0.0840   -18.2320 ca         1 6GG      -0.082800
     26 C59          1.3640    -0.0920   -19.6270 ca         1 6GG      -0.056000
     27 C58          2.5440    -0.0930   -20.3140 ca         1 6GG      -0.179000
     28 C14         -1.1390    -0.0890   -17.4540 cd         1 6GG      -0.156400
     29 N13         -1.9540    -1.1920   -17.5880 na         1 6GG      -0.163900
     30 C5          -1.5350    -2.5940   -17.5170 c3         1 6GG       0.092600
     31 C6          -1.5070    -3.0380   -16.0780 ca         1 6GG      -0.112300
     32 C7          -2.6370    -3.5870   -15.5000 ca         1 6GG      -0.099000
     33 C8          -2.6120    -3.9940   -14.1810 ca         1 6GG      -0.121500
     34 C9          -1.4530    -3.8530   -13.4350 ca         1 6GG       0.040400
     35 Cl2         -1.4200    -4.3640   -11.7770 cl         1 6GG      -0.099400
     36 C10         -0.3230    -3.3040   -14.0130 ca         1 6GG      -0.121500
     37 C11         -0.3480    -2.9010   -15.3350 ca         1 6GG      -0.099000
     38 C18         -3.2100    -0.7420   -17.7960 cd         1 6GG       0.406400
     39 N16         -3.2130     0.5630   -17.7980 nc         1 6GG      -0.686000
     40 C15         -1.9650     1.0180   -17.5850 cc         1 6GG       0.401800
     41 C37         -1.5500     2.4370   -17.5150 ca         1 6GG      -0.107500
     42 C38         -2.1710     3.3890   -18.3230 ca         1 6GG      -0.083500
     43 C39         -1.7800     4.7110   -18.2530 ca         1 6GG      -0.173000
     44 C40         -0.7720     5.0920   -17.3820 ca         1 6GG       0.127900
     45 F           -0.3930     6.3880   -17.3180 f          1 6GG      -0.146900
     46 C41         -0.1530     4.1500   -16.5770 ca         1 6GG      -0.173000
     47 C42         -0.5400     2.8280   -16.6350 ca         1 6GG      -0.083500
     48 H2           2.5840     0.8790    -1.3660 hc         1 6GG       0.044700
     49 H3           2.5850    -0.8900    -1.3580 hc         1 6GG       0.044700
     50 H4           0.3450    -0.8960    -2.4060 hc         1 6GG       0.064700
     51 H5           0.3450     0.8730    -2.4150 hc         1 6GG       0.064700
     52 H6           0.0460    -0.0180    -4.9410 hn         1 6GG       0.309500
     53 H7           2.4020     0.8570    -6.2710 h1         1 6GG       0.045700
     54 H8           2.4030    -0.9120    -6.2630 h1         1 6GG       0.045700
     55 H9           0.1640    -0.9180    -7.3100 hc         1 6GG       0.044700
     56 H10          0.1630     0.8510    -7.3190 hc         1 6GG       0.044700
     57 H11          2.1740    -0.9250    -8.7500 hc         1 6GG       0.045200
     58 H12          2.1730     0.8440    -8.7580 hc         1 6GG       0.045200
     59 H13         -0.0660     0.8390    -9.8070 hc         1 6GG       0.046700
     60 H14         -0.0660    -0.9300    -9.7990 hc         1 6GG       0.046700
     61 H15          1.9440    -0.9370   -11.2380 hc         1 6GG       0.051700
     62 H16          1.9440     0.8320   -11.2460 hc         1 6GG       0.051700
     63 H17         -0.2950     0.8280   -12.2940 h1         1 6GG       0.054200
     64 H18         -0.2960    -0.9410   -12.2860 h1         1 6GG       0.054200
     65 H19          3.0060    -0.0710   -15.4610 hn         1 6GG       0.319700
     66 H20          4.8200    -0.0920   -17.9300 ha         1 6GG       0.152000
     67 H21          0.6970    -0.1420   -20.4800 ha         1 6GG       0.157000
     68 H22          2.6750    -0.1150   -21.3890 ha         1 6GG       0.146000
     69 H23         -2.2360    -3.2080   -18.0700 h1         1 6GG       0.069200
     70 H24         -0.5470    -2.6980   -17.9470 h1         1 6GG       0.069200
     71 H25         -3.5440    -3.6980   -16.0830 ha         1 6GG       0.137000
     72 H26         -3.4970    -4.4240   -13.7290 ha         1 6GG       0.147000
     73 H27          0.5850    -3.1950   -13.4310 ha         1 6GG       0.147000
     74 H28          0.5370    -2.4710   -15.7880 ha         1 6GG       0.137000
     75 H29         -4.0820    -1.3680   -17.9420 h5         1 6GG       0.062100
     76 H30         -2.9590     3.0920   -19.0040 ha         1 6GG       0.144500
     77 H31         -2.2620     5.4520   -18.8800 ha         1 6GG       0.142000
     78 H32          0.6330     4.4540   -15.8960 ha         1 6GG       0.142000
     79 H33         -0.0540     2.0930   -16.0040 ha         1 6GG       0.144500
@<TRIPOS>BOND
     1     1     2 1
     2     2     3 1
     3     2     4 1
     4     4     5 1
     5     5     6 1
     6     6     8 1
     7     6     7 2
     8    45    44 1
     9     8     9 1
    10    46    44 ar
    11    46    47 ar
    12    44    43 ar
    13     9    10 1
    14    10    11 1
    15    47    41 ar
    16    43    42 ar
    17    11    12 1
    18    12    13 1
    19    41    42 ar
    20    41    40 1
    21    39    40 1
    22    39    38 2
    23    13    14 1
    24    40    28 2
    25    38    29 1
    26    28    29 1
    27    28    24 1
    28    14    15 1
    29    15    16 1
    30    29    30 1
    31    24    25 1
    32    24    18 2
    33    16    18 1
    34    16    17 2
    35    26    25 ar
    36    26    27 ar
    37    25    20 ar
    38    18    19 1
    39    30    31 1
    40    27    22 ar
    41    19    20 1
    42    20    21 ar
    43    22    21 ar
    44    22    23 1
    45    37    31 ar
    46    37    36 ar
    47    31    32 ar
    48    36    34 ar
    49    32    33 ar
    50    34    33 ar
    51    34    35 1
    52     4    48 1
    53     4    49 1
    54     5    50 1
    55     5    51 1
    56     8    52 1
    57     9    53 1
    58     9    54 1
    59    10    55 1
    60    10    56 1
    61    11    57 1
    62    11    58 1
    63    12    59 1
    64    12    60 1
    65    13    61 1
    66    13    62 1
    67    14    63 1
    68    14    64 1
    69    19    65 1
    70    21    66 1
    71    26    67 1
    72    27    68 1
    73    30    69 1
    74    30    70 1
    75    32    71 1
    76    33    72 1
    77    36    73 1
    78    37    74 1
    79    38    75 1
    80    42    76 1
    81    43    77 1
    82    46    78 1
    83    47    79 1
@<TRIPOS>SUBSTRUCTURE
     1 6GG         1 TEMP              0 ****  ****    0 ROOT
