@<TRIPOS>MOLECULE
6GH
   45    48     1     0     0
SMALL
bcc


@<TRIPOS>ATOM
      1 C10          0.0000     0.0000     0.0000 ca         1 6GH      -0.211300
      2 C13          1.1540     1.0280    -4.6690 ca         1 6GH      -0.211300
      3 C15          2.4430     1.6330    -6.5790 ca         1 6GH      -0.217300
      4 C17          6.8280     0.9440     0.5450 cc         1 6GH      -0.176500
      5 C20          6.6650    -0.3540     0.8550 cd         1 6GH      -0.015100
      6 N01          6.0140     3.0200    -0.4580 nb         1 6GH      -0.684000
      7 C01          5.8040     1.7320    -0.1800 ca         1 6GH       0.534800
      8 C02          4.6080     1.1390    -0.5800 ca         1 6GH      -0.423600
      9 C03          3.6770     1.9210    -1.2580 ca         1 6GH       0.571200
     10 N02          3.9560     3.1990    -1.5000 nb         1 6GH      -0.686000
     11 C04          5.1040     3.7300    -1.1060 ca         1 6GH       0.747900
     12 N03          5.3570     5.0640    -1.3760 nv         1 6GH      -0.622500
     13 N04          2.4730     1.3750    -1.6760 nh         1 6GH      -0.459300
     14 C05          2.1260    -0.0010    -1.3110 c3         1 6GH       0.121500
     15 C06          1.3820     0.0000     0.0000 ca         1 6GH       0.341600
     16 N05          2.0560     0.0000     1.1320 nb         1 6GH      -0.551500
     17 C07          1.4480     0.0010     2.3030 ca         1 6GH       0.403200
     18 C08          0.0680     0.0010     2.3810 ca         1 6GH      -0.217300
     19 C09         -0.6760     0.0060     1.2100 ca         1 6GH      -0.069000
     20 C11          1.5470     2.1730    -2.4840 c3         1 6GH       0.121500
     21 C12          1.8560     1.9750    -3.9450 ca         1 6GH       0.341600
     22 C14          1.4500     0.8500    -6.0120 ca         1 6GH      -0.069000
     23 C16          3.0950     2.5660    -5.7950 ca         1 6GH       0.403200
     24 N06          2.7920     2.7050    -4.5180 nb         1 6GH      -0.551500
     25 C18          8.0430     1.4870     0.9680 cc         1 6GH      -0.087000
     26 C19          8.8250     0.6190     1.6060 cd         1 6GH      -0.018100
     27 S01          8.0290    -0.9460     1.6920 ss         1 6GH      -0.249800
     28 H1          -0.5480     0.0040    -0.9340 ha         1 6GH       0.112000
     29 H2           0.3840     0.4340    -4.1930 ha         1 6GH       0.112000
     30 H3           2.6990     1.5220    -7.6260 ha         1 6GH       0.113500
     31 H4           5.7890    -0.9420     0.6090 h4         1 6GH       0.157000
     32 H5           4.4090     0.0950    -0.3690 ha         1 6GH       0.146000
     33 H6           4.8950     5.7780    -0.8490 hn         1 6GH       0.275800
     34 H7           6.0200     5.3140    -2.0840 hn         1 6GH       0.275800
     35 H8           3.0320    -0.5880    -1.2120 h1         1 6GH       0.039450
     36 H9           1.4990    -0.4330    -2.0820 h1         1 6GH       0.039450
     37 H10          2.0360    -0.0010     3.2120 h4         1 6GH      -0.017900
     38 H11         -0.4270     0.0040     3.3450 ha         1 6GH       0.113500
     39 H12         -1.7580     0.0060     1.2410 ha         1 6GH       0.108500
     40 H13          0.5290     1.8590    -2.2840 h1         1 6GH       0.039450
     41 H14          1.6570     3.2210    -2.2300 h1         1 6GH       0.039450
     42 H15          0.9190     0.1130    -6.6040 ha         1 6GH       0.108500
     43 H16          3.8720     3.1820    -6.2310 h4         1 6GH      -0.017900
     44 H17          8.3230     2.5190     0.7940 ha         1 6GH       0.141000
     45 H18          9.8040     0.8430     2.0120 h4         1 6GH       0.148000
@<TRIPOS>BOND
     1     1    15 ar  
     2     1    19 ar  
     3     1    28 1   
     4     2    21 ar  
     5     2    22 ar  
     6     2    29 1   
     7     3    22 ar  
     8     3    23 ar  
     9     3    30 1   
    10     4     5 2   
    11     4     7 1   
    12     4    25 1   
    13     5    27 1   
    14     5    31 1   
    15     6     7 ar  
    16     6    11 ar  
    17     7     8 ar  
    18     8     9 ar  
    19     8    32 1   
    20     9    10 ar  
    21     9    13 1   
    22    10    11 ar  
    23    11    12 1   
    24    12    33 1   
    25    12    34 1   
    26    13    14 1   
    27    13    20 1   
    28    14    15 1   
    29    14    35 1   
    30    14    36 1   
    31    15    16 ar  
    32    16    17 ar  
    33    17    18 ar  
    34    17    37 1   
    35    18    19 ar  
    36    18    38 1   
    37    19    39 1   
    38    20    21 1   
    39    20    40 1   
    40    20    41 1   
    41    21    24 ar  
    42    22    42 1   
    43    23    24 ar  
    44    23    43 1   
    45    25    26 2   
    46    25    44 1   
    47    26    27 1   
    48    26    45 1   
@<TRIPOS>SUBSTRUCTURE
     1 6GH         1 TEMP              0 ****  ****    0 ROOT
