@<TRIPOS>MOLECULE
6GJ
   38    39     1     0     0
SMALL
bcc


@<TRIPOS>ATOM
      1 C1           0.0000     0.0000     0.0000 c3         1 6GJ       0.390300
      2 O1          -0.4870     0.1680    -1.3330 oh         1 6GJ      -0.571800
      3 C2           1.5320     0.0000     0.0000 c3         1 6GJ       0.118100
      4 O2           2.0080    -1.1660    -0.6760 oh         1 6GJ      -0.586800
      5 N5          -0.4470     1.1380     0.8480 nh         1 6GJ      -0.485600
      6 C7          -1.3570     2.0630     0.4150 c2         1 6GJ       0.586100
      7 N8          -1.9840     2.0170    -0.7270 n2         1 6GJ      -0.599900
      8 C9          -2.5080     0.7430    -1.2250 c3         1 6GJ       0.183800
      9 C10         -4.0350     0.8120    -1.2970 c3         1 6GJ      -0.034400
     10 C11         -4.5820    -0.5190    -1.8160 c3         1 6GJ      -0.026400
     11 C12         -6.1100    -0.4490    -1.8870 c3         1 6GJ       0.006900
     12 S6          -1.5600     3.3270     1.6290 ss         1 6GJ      -0.331300
     13 C6          -0.4060     2.6170     2.8450 c3         1 6GJ       0.074700
     14 C5           0.0770     1.3220     2.1960 c3         1 6GJ       0.141500
     15 C4           1.6070     1.2820     2.1520 c3         1 6GJ       0.155100
     16 O4           2.0950     2.4190     1.4370 oh         1 6GJ      -0.561800
     17 C3           2.0490     0.0000     1.4390 c3         1 6GJ       0.156100
     18 O3           3.4770    -0.0710     1.4310 oh         1 6GJ      -0.574800
     19 H1          -0.3660    -0.9310     0.4160 h2         1 6GJ       0.018700
     20 H2          -0.0330    -0.4230    -1.9110 ho         1 6GJ       0.402000
     21 H3           1.8900     0.8870    -0.5090 h1         1 6GJ       0.052700
     22 H4           2.6200    -0.9130    -1.3470 ho         1 6GJ       0.405000
     23 H5          -2.1090     0.5490    -2.2130 h1         1 6GJ       0.018700
     24 H6          -2.2140    -0.0550    -0.5540 h1         1 6GJ       0.018700
     25 H7          -4.4350     1.0060    -0.3090 hc         1 6GJ       0.021200
     26 H8          -4.3290     1.6100    -1.9680 hc         1 6GJ       0.021200
     27 H9          -4.1830    -0.7120    -2.8040 hc         1 6GJ       0.007700
     28 H10         -4.2880    -1.3170    -1.1450 hc         1 6GJ       0.007700
     29 H11         -6.4040     0.3490    -2.5580 hc         1 6GJ      -0.000300
     30 H12         -6.4970    -1.3910    -2.2550 hc         1 6GJ      -0.000300
     31 H13         -6.5090    -0.2550    -0.8990 hc         1 6GJ      -0.000300
     32 H14          0.4470     3.2820     2.8940 h1         1 6GJ       0.069700
     33 H15         -0.9950     2.3350     3.7090 h1         1 6GJ       0.069700
     34 H16         -0.2630     0.4940     2.8060 h1         1 6GJ       0.029700
     35 H17          1.9980     1.2870     3.1620 h1         1 6GJ       0.014700
     36 H18          2.8040     2.8120     1.9180 ho         1 6GJ       0.398000
     37 H19          1.6450    -0.8580     1.9630 h1         1 6GJ       0.013700
     38 H20          3.7600    -0.7580     2.0110 ho         1 6GJ       0.394000
@<TRIPOS>BOND
     1     1     2 1   
     2     1     3 1   
     3     1     5 1   
     4     1    19 1   
     5     2    20 1   
     6     3     4 1   
     7     3    17 1   
     8     3    21 1   
     9     4    22 1   
    10     5     6 1   
    11     5    14 1   
    12     6     7 2   
    13     6    12 1   
    14     7     8 1   
    15     8     9 1   
    16     8    23 1   
    17     8    24 1   
    18     9    10 1   
    19     9    25 1   
    20     9    26 1   
    21    10    11 1   
    22    10    27 1   
    23    10    28 1   
    24    11    29 1   
    25    11    30 1   
    26    11    31 1   
    27    12    13 1   
    28    13    14 1   
    29    13    32 1   
    30    13    33 1   
    31    14    15 1   
    32    14    34 1   
    33    15    16 1   
    34    15    17 1   
    35    15    35 1   
    36    16    36 1   
    37    17    18 1   
    38    17    37 1   
    39    18    38 1   
@<TRIPOS>SUBSTRUCTURE
     1 6GJ         1 TEMP              0 ****  ****    0 ROOT
