@<TRIPOS>MOLECULE
molecule
   38    39     1     0     0
SMALL
bcc


@<TRIPOS>ATOM
      1 C1           0.0000     0.0000     0.0000 c3         1 6GJ       0.459300
      2 O1          -0.4870     0.1680    -1.3330 oh         1 6GJ      -0.586800
      3 C2           1.5320     0.0000     0.0000 c3         1 6GJ       0.095100
      4 O2           2.0080    -1.1660    -0.6760 oh         1 6GJ      -0.611800
      5 N5          -0.4470     1.1380     0.8480 nh         1 6GJ      -0.821600
      6 C7          -1.3570     2.0630     0.4150 c2         1 6GJ       0.711100
      7 N8          -1.9840     2.0170    -0.7270 n2         1 6GJ      -0.686900
      8 C9          -2.5080     0.7430    -1.2250 c3         1 6GJ       0.184800
      9 C10         -4.0350     0.8120    -1.2970 c3         1 6GJ      -0.088400
     10 C11         -4.5820    -0.5190    -1.8160 c3         1 6GJ      -0.084400
     11 C12         -6.1100    -0.4490    -1.8870 c3         1 6GJ      -0.090100
     12 S6          -1.5600     3.3270     1.6290 ss         1 6GJ      -0.227300
     13 C6          -0.4060     2.6170     2.8450 c3         1 6GJ      -0.010300
     14 C5           0.0770     1.3220     2.1960 c3         1 6GJ       0.223500
     15 C4           1.6070     1.2820     2.1520 c3         1 6GJ       0.117100
     16 O4           2.0950     2.4190     1.4370 oh         1 6GJ      -0.578800
     17 C3           2.0490     0.0000     1.4390 c3         1 6GJ       0.126100
     18 O3           3.4770    -0.0710     1.4310 oh         1 6GJ      -0.592800
     19 H1          -0.3660    -0.9310     0.4160 h2         1 6GJ       0.048700
     20 H2          -0.1950    -0.5520    -1.8680 ho         1 6GJ       0.419000
     21 H3           1.8900     0.8870    -0.5090 h1         1 6GJ       0.090700
     22 H4           2.6060    -0.9110    -1.3590 ho         1 6GJ       0.419000
     23 H5          -2.2140    -0.0550    -0.5540 h1         1 6GJ       0.037200
     24 H6          -2.1090     0.5500    -2.2130 h1         1 6GJ       0.037200
     25 H7          -4.4350     1.0060    -0.3090 hc         1 6GJ       0.048700
     26 H8          -4.3290     1.6100    -1.9680 hc         1 6GJ       0.048700
     27 H9          -4.2880    -1.3170    -1.1450 hc         1 6GJ       0.035200
     28 H10         -4.1830    -0.7120    -2.8040 hc         1 6GJ       0.035200
     29 H11         -6.4030     0.3520    -2.5550 hc         1 6GJ       0.032033
     30 H12         -6.5090    -0.2590    -0.8980 hc         1 6GJ       0.032033
     31 H13         -6.4970    -1.3890    -2.2590 hc         1 6GJ       0.032033
     32 H14          0.4470     3.2820     2.8940 h1         1 6GJ       0.094200
     33 H15         -0.9950     2.3350     3.7090 h1         1 6GJ       0.094200
     34 H16         -0.2630     0.4940     2.8060 h1         1 6GJ       0.052700
     35 H17          1.9980     1.2870     3.1620 h1         1 6GJ       0.045700
     36 H18          2.7260     2.8760     1.9670 ho         1 6GJ       0.408000
     37 H19          1.6450    -0.8580     1.9630 h1         1 6GJ       0.044700
     38 H20          3.7620    -0.7290     2.0430 ho         1 6GJ       0.406000
@<TRIPOS>BOND
     1     4     3 1
     2    11    10 1
     3     2     1 1
     4     9     8 1
     5     9    10 1
     6     8     7 1
     7     3     1 1
     8     3    17 1
     9     1     5 1
    10    18    17 1
    11     7     6 2
    12    17    15 1
    13     5     6 1
    14     5    14 1
    15     6    12 1
    16    15    14 1
    17    15    16 1
    18    14    13 1
    19    12    13 1
    20     1    19 1
    21     2    20 1
    22     3    21 1
    23     4    22 1
    24     8    23 1
    25     8    24 1
    26     9    25 1
    27     9    26 1
    28    10    27 1
    29    10    28 1
    30    11    29 1
    31    11    30 1
    32    11    31 1
    33    13    32 1
    34    13    33 1
    35    14    34 1
    36    15    35 1
    37    16    36 1
    38    17    37 1
    39    18    38 1
@<TRIPOS>SUBSTRUCTURE
     1 6GJ         1 TEMP              0 ****  ****    0 ROOT
