@<TRIPOS>MOLECULE
6GK
   52    55     1     0     0
SMALL
bcc


@<TRIPOS>ATOM
      1 C10          0.0000     0.0000     0.0000 ca         1 6GK       0.599200
      2 C13         -2.5570     1.5630    -1.2470 ca         1 6GK       0.343600
      3 C15         -3.1990     3.4820    -2.5130 ca         1 6GK      -0.070000
      4 C17         -2.9620     3.5410    -0.1380 ca         1 6GK       0.402700
      5 C20          1.3230    -3.5430    -2.6520 ca         1 6GK       0.402700
      6 C21          0.4380    -4.1890    -3.4930 ca         1 6GK      -0.219800
      7 C22         -0.6260    -3.4800    -4.0300 ca         1 6GK      -0.070000
      8 C01          4.2180    -0.0050     4.8920 c3         1 6GK       0.228700
      9 C02          4.1940     0.0010     2.5160 ca         1 6GK       0.190100
     10 C07          5.5800    -0.0060     2.5570 ca         1 6GK      -0.230000
     11 C06          6.3070    -0.0060     1.3810 ca         1 6GK      -0.045000
     12 C05          5.6590    -0.0000     0.1590 ca         1 6GK      -0.159000
     13 C04          4.2800     0.0060     0.1030 ca         1 6GK      -0.045000
     14 C03          3.5360    -0.0000     1.2810 cp         1 6GK      -0.196500
     15 C08          2.0560     0.0000     1.2260 cp         1 6GK       0.559800
     16 C11          1.3950     0.0000     0.0000 ca         1 6GK      -0.479600
     17 N01          1.3370     0.0000     2.3500 nb         1 6GK      -0.714000
     18 C09          0.0150     0.0100     2.3090 ca         1 6GK       0.742900
     19 N02         -0.6960     0.0100     3.4960 nv         1 6GK      -0.518500
     20 N03         -0.6480     0.0050     1.1610 nb         1 6GK      -0.743000
     21 N04         -0.7010    -0.0010    -1.1950 nh         1 6GK      -0.459300
     22 C18          0.0170    -0.1110    -2.4670 c3         1 6GK       0.122000
     23 C19          0.1580    -1.5640    -2.8400 ca         1 6GK       0.343600
     24 N06          1.1610    -2.2680    -2.3540 nb         1 6GK      -0.549500
     25 C23         -0.7610    -2.1410    -3.6980 ca         1 6GK      -0.211800
     26 C12         -2.1620     0.1100    -1.1870 c3         1 6GK       0.122000
     27 N05         -2.6210     2.2670    -0.1340 nb         1 6GK      -0.549500
     28 C16         -3.2550     4.1900    -1.3220 ca         1 6GK      -0.219800
     29 C14         -2.8430     2.1430    -2.4690 ca         1 6GK      -0.211800
     30 H1          -3.4260     3.9640    -3.4560 ha         1 6GK       0.107500
     31 H2          -3.0030     4.0870     0.7960 h4         1 6GK      -0.018900
     32 H3           2.1580    -4.0890    -2.2310 h4         1 6GK      -0.018900
     33 H4           0.5750    -5.2370    -3.7330 ha         1 6GK       0.112500
     34 H5          -1.3320    -3.9600    -4.6960 ha         1 6GK       0.107500
     35 H6           4.8460     0.8770     4.9380 h1         1 6GK      -0.003967
     36 H7           3.5320    -0.0040     5.7310 h1         1 6GK      -0.003967
     37 H8           4.8380    -0.8930     4.9330 h1         1 6GK      -0.003967
     38 H9           6.0930    -0.0110     3.5110 ha         1 6GK       0.121000
     39 H10          7.3900    -0.0110     1.4180 ha         1 6GK       0.097000
     40 H11          6.2370     0.0020    -0.7580 ha         1 6GK       0.104000
     41 H12          3.7770     0.0080    -0.8560 ha         1 6GK       0.114000
     42 H13          1.9500    -0.0040    -0.9300 ha         1 6GK       0.148000
     43 H14         -1.6420    -0.3140     3.5130 hn         1 6GK       0.271300
     44 H15         -0.2570     0.3190     4.3420 hn         1 6GK       0.271300
     45 H16         -0.5360     0.4090    -3.2400 h1         1 6GK       0.038450
     46 H17          1.0000     0.3330    -2.3660 h1         1 6GK       0.038450
     47 H18         -1.5800    -1.5560    -4.0990 ha         1 6GK       0.111500
     48 H19         -2.5690    -0.4100    -2.0460 h1         1 6GK       0.038450
     49 H20         -2.5530    -0.3330    -0.2790 h1         1 6GK       0.038450
     50 H21         -3.5320     5.2380    -1.3200 ha         1 6GK       0.112500
     51 H22         -2.7880     1.5590    -3.3800 ha         1 6GK       0.111500
     52 O01          3.4780     0.0010     3.6690 os         1 6GK      -0.257900
@<TRIPOS>BOND
     1     1    16 ar  
     2     1    20 ar  
     3     1    21 1   
     4     2    26 1   
     5     2    27 ar  
     6     2    29 ar  
     7     3    28 ar  
     8     3    29 ar  
     9     3    30 1   
    10     4    27 ar  
    11     4    28 ar  
    12     4    31 1   
    13     5     6 ar  
    14     5    24 ar  
    15     5    32 1   
    16     6     7 ar  
    17     6    33 1   
    18     7    25 ar  
    19     7    34 1   
    20     8    35 1   
    21     8    36 1   
    22     8    37 1   
    23     8    52 1   
    24     9    10 ar  
    25     9    14 ar  
    26     9    52 1   
    27    10    11 ar  
    28    10    38 1   
    29    11    12 ar  
    30    11    39 1   
    31    12    13 ar  
    32    12    40 1   
    33    13    14 ar  
    34    13    41 1   
    35    14    15 1   
    36    15    16 ar  
    37    15    17 ar  
    38    16    42 1   
    39    17    18 ar  
    40    18    19 1   
    41    18    20 ar  
    42    19    43 1   
    43    19    44 1   
    44    21    22 1   
    45    21    26 1   
    46    22    23 1   
    47    22    45 1   
    48    22    46 1   
    49    23    24 ar  
    50    23    25 ar  
    51    25    47 1   
    52    26    48 1   
    53    26    49 1   
    54    28    50 1   
    55    29    51 1   
@<TRIPOS>SUBSTRUCTURE
     1 6GK         1 TEMP              0 ****  ****    0 ROOT
