@<TRIPOS>MOLECULE
molecule
   49    52     1     0     0
SMALL
bcc


@<TRIPOS>ATOM
      1 C10          0.0000     0.0000     0.0000 ca         1 6GM      -0.080500
      2 C13         -7.4050    -1.7960     0.3080 ca         1 6GM      -0.208300
      3 C15         -8.1840    -3.7650    -0.7830 ca         1 6GM      -0.248800
      4 C17         -4.3590    -0.1380    -2.3980 c3         1 6GM       0.199500
      5 C20         -3.9820    -4.2260    -3.4020 ca         1 6GM      -0.248800
      6 C21         -5.0690    -3.5230    -3.8980 ca         1 6GM      -0.102500
      7 C22         -5.1920    -2.1810    -3.5690 ca         1 6GM      -0.208300
      8 C06          0.0060     0.0130     2.4130 ca         1 6GM      -0.080500
      9 C07          1.3850     0.0120     2.4080 ca         1 6GM      -0.165500
     10 C08          2.0740     0.0000     1.2020 ca         1 6GM       0.115100
     11 O01          3.4330    -0.0000     1.2000 oh         1 6GM      -0.524100
     12 C09          1.3790     0.0000     0.0000 ca         1 6GM      -0.165500
     13 C05         -0.6960     0.0060     1.2080 cp         1 6GM      -0.160500
     14 C04         -2.1790     0.0070     1.2120 cp         1 6GM       0.571800
     15 C03         -2.8870    -0.0050     0.0120 ca         1 6GM      -0.448600
     16 N03         -2.8520     0.0140     2.3620 nb         1 6GM      -0.818000
     17 C01         -4.1760     0.0150     2.3730 ca         1 6GM       0.972900
     18 N01         -4.8390     0.0220     3.5870 nv         1 6GM      -1.024500
     19 N02         -4.8820     0.0090     1.2520 nb         1 6GM      -0.858000
     20 C02         -4.2790    -0.0040     0.0660 ca         1 6GM       0.757200
     21 N04         -5.0280    -0.0140    -1.1010 nh         1 6GM      -0.810300
     22 C18         -4.2340    -1.5950    -2.7620 ca         1 6GM       0.388600
     23 N06         -3.2130    -2.2950    -2.3090 nb         1 6GM      -0.690500
     24 C19         -3.0660    -3.5740    -2.5970 ca         1 6GM       0.411200
     25 C11         -6.4870     0.0980    -1.0370 c3         1 6GM       0.199500
     26 C12         -7.0930    -1.2780    -0.9340 ca         1 6GM       0.388600
     27 N05         -7.3170    -1.9750    -2.0310 nb         1 6GM      -0.690500
     28 C16         -7.8440    -3.1830    -1.9900 ca         1 6GM       0.411200
     29 C14         -7.9610    -3.0640     0.3920 ca         1 6GM      -0.102500
     30 H1          -0.5420    -0.0030    -0.9380 ha         1 6GM       0.150000
     31 H2          -7.2180    -1.2190     1.2050 ha         1 6GM       0.158500
     32 H3          -8.6160    -4.7580    -0.7550 ha         1 6GM       0.135000
     33 H4          -4.9400     0.3750    -3.1540 h1         1 6GM       0.068450
     34 H5          -3.3720     0.3050    -2.3390 h1         1 6GM       0.068450
     35 H7          -5.8030    -4.0090    -4.5290 ha         1 6GM       0.136500
     36 H8          -6.0280    -1.6010    -3.9390 ha         1 6GM       0.158500
     37 H9          -0.5320     0.0200     3.3530 ha         1 6GM       0.150000
     38 H10          1.9300     0.0170     3.3430 ha         1 6GM       0.141000
     39 H11          3.7470    -0.8860     1.1200 ho         1 6GM       0.420000
     40 H12          1.9200    -0.0070    -0.9380 ha         1 6GM       0.141000
     41 H13         -2.3690    -0.0150    -0.9390 ha         1 6GM       0.157000
     42 H14         -4.5410    -0.5860     4.3240 hn         1 6GM       0.444300
     43 H15         -5.6150     0.6390     3.7300 hn         1 6GM       0.444300
     44 H16         -2.2140    -4.1160    -2.2060 h4         1 6GM       0.019600
     45 H17         -6.7670     0.6820    -0.1680 h1         1 6GM       0.068450
     46 H18         -6.8510     0.5870    -1.9330 h1         1 6GM       0.068450
     47 H19         -8.0140    -3.7250    -2.9120 h4         1 6GM       0.019600
     48 H20         -8.2170    -3.4950     1.3520 ha         1 6GM       0.136500
     49 H6          -3.8550    -5.2760    -3.6370 ha         1 6GM       0.135000
@<TRIPOS>BOND
     1    25    26 1
     2    25    21 1
     3     2    26 ar
     4     2    29 ar
     5    26    27 ar
     6    29     3 ar
     7     4    21 1
     8     4    22 1
     9    27    28 ar
    10    21    20 1
    11     3    28 ar
    12    22     7 ar
    13    22    23 ar
    14     7     6 ar
    15    23    24 ar
    16    20    15 ar
    17    20    19 ar
    18     6     5 ar
    19    15    14 ar
    20    24     5 ar
    21    19    17 ar
    22     8     9 ar
    23     8    13 ar
    24    14    13 1
    25    14    16 ar
    26     9    10 ar
    27    13     1 ar
    28    17    16 ar
    29    17    18 1
    30    10    11 1
    31    10    12 ar
    32     1    12 ar
    33     1    30 1
    34     2    31 1
    35     3    32 1
    36     4    33 1
    37     4    34 1
    38     5    49 1
    39     6    35 1
    40     7    36 1
    41     8    37 1
    42     9    38 1
    43    11    39 1
    44    12    40 1
    45    15    41 1
    46    18    42 1
    47    18    43 1
    48    24    44 1
    49    25    45 1
    50    25    46 1
    51    28    47 1
    52    29    48 1
@<TRIPOS>SUBSTRUCTURE
     1 6GM         1 TEMP              0 ****  ****    0 ROOT
