@<TRIPOS>MOLECULE
6GM
   49    52     1     0     0
SMALL
bcc


@<TRIPOS>ATOM
      1 C10          0.0000     0.0000     0.0000 ca         1 6GM      -0.052000
      2 C13         -7.4050    -1.7960     0.3080 ca         1 6GM      -0.184300
      3 C15         -8.1840    -3.7650    -0.7830 ca         1 6GM      -0.216800
      4 C17         -4.3590    -0.1380    -2.3980 c3         1 6GM       0.128500
      5 C20         -3.9820    -4.2260    -3.4020 ca         1 6GM      -0.216800
      6 C21         -5.0690    -3.5230    -3.8980 ca         1 6GM      -0.076500
      7 C22         -5.1920    -2.1810    -3.5690 ca         1 6GM      -0.184300
      8 C06          0.0060     0.0130     2.4130 ca         1 6GM      -0.052000
      9 C07          1.3850     0.0120     2.4080 ca         1 6GM      -0.150500
     10 C08          2.0740     0.0000     1.2020 ca         1 6GM       0.133100
     11 O01          3.4330    -0.0000     1.2000 oh         1 6GM      -0.503100
     12 C09          1.3790     0.0000     0.0000 ca         1 6GM      -0.150500
     13 C05         -0.6960     0.0060     1.2080 cp         1 6GM      -0.176500
     14 C04         -2.1790     0.0070     1.2120 cp         1 6GM       0.547800
     15 C03         -2.8870    -0.0050     0.0120 ca         1 6GM      -0.453600
     16 N03         -2.8520     0.0140     2.3620 nb         1 6GM      -0.717000
     17 C01         -4.1760     0.0150     2.3730 ca         1 6GM       0.747900
     18 N01         -4.8390     0.0220     3.5870 nv         1 6GM      -0.560500
     19 N02         -4.8820     0.0090     1.2520 nb         1 6GM      -0.754000
     20 C02         -4.2790    -0.0040     0.0660 ca         1 6GM       0.590200
     21 N04         -5.0280    -0.0140    -1.1010 nh         1 6GM      -0.452300
     22 C18         -4.2340    -1.5950    -2.7620 ca         1 6GM       0.336100
     23 N06         -3.2130    -2.2950    -2.3090 nb         1 6GM      -0.574000
     24 C19         -3.0660    -3.5740    -2.5970 ca         1 6GM       0.392700
     25 C11         -6.4870     0.0980    -1.0370 c3         1 6GM       0.128500
     26 C12         -7.0930    -1.2780    -0.9340 ca         1 6GM       0.336100
     27 N05         -7.3170    -1.9750    -2.0310 nb         1 6GM      -0.574000
     28 C16         -7.8440    -3.1830    -1.9900 ca         1 6GM       0.392700
     29 C14         -7.9610    -3.0640     0.3920 ca         1 6GM      -0.076500
     30 H1          -0.5420    -0.0030    -0.9380 ha         1 6GM       0.119500
     31 H2          -7.2180    -1.2190     1.2050 ha         1 6GM       0.136000
     32 H3          -8.6160    -4.7580    -0.7550 ha         1 6GM       0.111500
     33 H4          -4.9400     0.3750    -3.1540 h1         1 6GM       0.037700
     34 H5          -3.3720     0.3050    -2.3390 h1         1 6GM       0.037700
     35 H7          -5.8030    -4.0090    -4.5290 ha         1 6GM       0.108500
     36 H8          -6.0280    -1.6010    -3.9390 ha         1 6GM       0.136000
     37 H9          -0.5320     0.0200     3.3530 ha         1 6GM       0.119500
     38 H10          1.9300     0.0170     3.3430 ha         1 6GM       0.114000
     39 H11          3.7470    -0.8860     1.1200 ho         1 6GM       0.402000
     40 H12          1.9200    -0.0070    -0.9380 ha         1 6GM       0.114000
     41 H13         -2.3690    -0.0150    -0.9390 ha         1 6GM       0.153000
     42 H14         -4.5410    -0.5860     4.3240 hn         1 6GM       0.273300
     43 H15         -5.6150     0.6390     3.7300 hn         1 6GM       0.273300
     44 H16         -2.2140    -4.1160    -2.2060 h4         1 6GM      -0.020900
     45 H17         -6.7670     0.6820    -0.1680 h1         1 6GM       0.037700
     46 H18         -6.8510     0.5870    -1.9330 h1         1 6GM       0.037700
     47 H19         -8.0140    -3.7250    -2.9120 h4         1 6GM      -0.020900
     48 H20         -8.2170    -3.4950     1.3520 ha         1 6GM       0.108500
     49 H6          -3.8550    -5.2760    -3.6370 ha         1 6GM       0.111500
@<TRIPOS>BOND
     1     1    12 ar  
     2     1    13 ar  
     3     1    30 1   
     4     2    26 ar  
     5     2    29 ar  
     6     2    31 1   
     7     3    28 ar  
     8     3    29 ar  
     9     3    32 1   
    10     4    21 1   
    11     4    22 1   
    12     4    33 1   
    13     4    34 1   
    14     5     6 ar  
    15     5    24 ar  
    16     5    49 1   
    17     6     7 ar  
    18     6    35 1   
    19     7    22 ar  
    20     7    36 1   
    21     8     9 ar  
    22     8    13 ar  
    23     8    37 1   
    24     9    10 ar  
    25     9    38 1   
    26    10    11 1   
    27    10    12 ar  
    28    11    39 1   
    29    12    40 1   
    30    13    14 1   
    31    14    15 ar  
    32    14    16 ar  
    33    15    20 ar  
    34    15    41 1   
    35    16    17 ar  
    36    17    18 1   
    37    17    19 ar  
    38    18    42 1   
    39    18    43 1   
    40    19    20 ar  
    41    20    21 1   
    42    21    25 1   
    43    22    23 ar  
    44    23    24 ar  
    45    24    44 1   
    46    25    26 1   
    47    25    45 1   
    48    25    46 1   
    49    26    27 ar  
    50    27    28 ar  
    51    28    47 1   
    52    29    48 1   
@<TRIPOS>SUBSTRUCTURE
     1 6GM         1 TEMP              0 ****  ****    0 ROOT
