@<TRIPOS>MOLECULE
molecule
   92    95     1     0     0
SMALL
bcc


@<TRIPOS>ATOM
      1 C            0.0000     0.0000     0.0000 c3         1 6GN       0.100800
      2 N            1.4690     0.0000     0.0000 nz         1 6GN      -0.807600
      3 O           -0.1320     1.2200     2.0830 os         1 6GN      -0.448600
      4 C2          -0.5620     1.3220     3.4420 c3         1 6GN       0.142400
      5 N2          -8.0540     8.4340     1.8150 ns         1 6GN      -0.595900
      6 O2          -3.0650     7.6520     1.9100 o          1 6GN      -0.615100
      7 C3          -0.1040     2.6610     4.0230 c3         1 6GN       0.141400
      8 N3         -12.4770    10.2530     0.7900 na         1 6GN       0.069900
      9 O3          -7.5870     6.7460     3.1760 o          1 6GN      -0.600100
     10 C4          -0.4020     5.0290     3.8060 c3         1 6GN       0.116400
     11 N4         -16.8900    13.5130    -0.4710 na         1 6GN       0.043800
     12 O4         -14.7290    15.1280     5.3160 o          1 6GN      -0.678867
     13 C5          -1.1630     6.0870     3.0050 c3         1 6GN       0.119000
     14 C6          -3.4700     6.7970     2.6700 c          1 6GN       0.656100
     15 C7          -4.9450     6.6700     2.9440 c3         1 6GN      -0.142400
     16 C8          -5.7060     7.7280     2.1420 c3         1 6GN      -0.138400
     17 C9          -7.1830     7.6000     2.4160 c          1 6GN       0.660100
     18 C10         -9.4900     8.3100     2.0800 c3         1 6GN       0.121000
     19 C11        -10.2500     9.3690     1.2800 c3         1 6GN      -0.127400
     20 C12        -11.7490     9.2390     1.5560 c3         1 6GN      -0.013700
     21 O6         -14.1620    13.1190     4.2930 o          1 6GN      -0.678867
     22 S          -15.2560    14.0180     4.4180 s6         1 6GN       1.226800
     23 O5         -16.4690    13.6130     5.0370 o          1 6GN      -0.678867
     24 C20        -15.5910    14.8360     2.8340 c3         1 6GN      -0.256600
     25 C19        -16.1310    13.8120     1.8360 c3         1 6GN      -0.071400
     26 C18        -16.4130    14.5020     0.4990 c3         1 6GN      -0.020700
     27 C21        -18.1870    13.1560    -0.5200 ca         1 6GN      -0.090200
     28 C26        -18.4270    12.2010    -1.5140 ca         1 6GN      -0.050100
     29 C25        -19.7140    11.7080    -1.7180 ca         1 6GN      -0.078000
     30 C24        -20.7560    12.1590    -0.9400 ca         1 6GN      -0.059000
     31 C23        -20.5240    13.1070     0.0480 ca         1 6GN      -0.073000
     32 C22        -19.2730    13.6000     0.2630 ca         1 6GN      -0.069000
     33 S1         -16.8970    11.8510    -2.3110 ss         1 6GN       0.146900
     34 C17        -16.0870    12.9640    -1.3020 cc         1 6GN       0.130200
     35 C15        -13.8510    12.1950    -0.6200 ca         1 6GN       0.015700
     36 C14        -13.4760    12.3910     0.6790 ca         1 6GN      -0.150000
     37 C13        -12.7850    11.3910     1.3610 ca         1 6GN       0.030700
     38 C27        -13.5100    10.9750    -1.2330 ca         1 6GN      -0.070000
     39 C32        -12.8110    10.0000    -0.4800 ca         1 6GN       0.009700
     40 C31        -12.4780     8.7770    -1.0870 ca         1 6GN      -0.144000
     41 C30        -12.8300     8.5480    -2.3820 ca         1 6GN      -0.046000
     42 C29        -13.5160     9.5090    -3.1210 ca         1 6GN      -0.086000
     43 C28        -13.8560    10.7050    -2.5670 ca         1 6GN      -0.106000
     44 N1          -2.5980     5.9630     3.2710 ns         1 6GN      -0.583900
     45 O1          -0.7620     3.7280     3.3370 os         1 6GN      -0.433600
     46 C1          -0.5110     0.0000     1.4430 c3         1 6GN       0.109400
     47 H1          -0.3610    -0.8840    -0.5110 hx         1 6GN       0.120200
     48 H2          -0.3610     0.8840    -0.5110 hx         1 6GN       0.120200
     49 H3           1.8030    -0.6210     0.7100 hn         1 6GN       0.460800
     50 H4           1.8030    -0.3050    -0.8930 hn         1 6GN       0.460800
     51 H6          -0.1320     0.5120     4.0180 h1         1 6GN       0.051200
     52 H7          -1.6430     1.2610     3.4840 h1         1 6GN       0.051200
     53 H8          -7.7210     9.1420     1.1910 hn         1 6GN       0.319500
     54 H9           0.9680     2.7600     3.9010 h1         1 6GN       0.047700
     55 H10         -0.3530     2.7010     5.0770 h1         1 6GN       0.047700
     56 H11          0.6640     5.1770     3.6790 h1         1 6GN       0.041700
     57 H12         -0.6560     5.1180     4.8560 h1         1 6GN       0.041700
     58 H13         -0.8250     7.0740     3.2990 h1         1 6GN       0.067700
     59 H14         -0.9770     5.9420     1.9480 h1         1 6GN       0.067700
     60 H15         -5.1300     6.8150     4.0010 hc         1 6GN       0.078200
     61 H16         -5.2830     5.6830     2.6500 hc         1 6GN       0.078200
     62 H17         -5.5200     7.5830     1.0850 hc         1 6GN       0.080700
     63 H18         -5.3690     8.7150     2.4360 hc         1 6GN       0.080700
     64 H19         -9.8270     7.3240     1.7850 h1         1 6GN       0.064200
     65 H20         -9.6760     8.4540     3.1380 h1         1 6GN       0.064200
     66 H21        -10.0650     9.2250     0.2220 hc         1 6GN       0.065700
     67 H22         -9.9130    10.3560     1.5740 hc         1 6GN       0.065700
     68 H23        -11.9350     9.3830     2.6140 h1         1 6GN       0.108700
     69 H24        -12.0860     8.2520     1.2610 h1         1 6GN       0.108700
     70 H25        -16.3240    15.6190     2.9810 h1         1 6GN       0.086700
     71 H26        -14.6740    15.2660     2.4500 h1         1 6GN       0.086700
     72 H27        -15.3980    13.0280     1.6890 hc         1 6GN       0.056200
     73 H28        -17.0480    13.3810     2.2200 hc         1 6GN       0.056200
     74 H29        -17.1710    15.2640     0.6390 h1         1 6GN       0.097200
     75 H30        -15.5040    14.9600     0.1300 h1         1 6GN       0.097200
     76 H31        -19.8950    10.9690    -2.4890 ha         1 6GN       0.166000
     77 H32        -21.7560    11.7760    -1.0990 ha         1 6GN       0.176000
     78 H33        -21.3490    13.4570     0.6570 ha         1 6GN       0.182000
     79 H34        -19.1110    14.3390     1.0380 ha         1 6GN       0.177000
     80 H35        -14.2930    13.2590    -2.4100 hc         1 6GN       0.112200
     81 H36        -14.4120    14.2250    -0.9330 hc         1 6GN       0.112200
     82 H37        -12.9680    13.2990     0.9790 ha         1 6GN       0.207000
     83 H38        -12.4870    11.6930     2.3580 h4         1 6GN       0.259000
     84 H39        -11.9440     8.0190    -0.5270 ha         1 6GN       0.169000
     85 H40        -12.5710     7.6040    -2.8450 ha         1 6GN       0.173000
     86 H41        -13.7840     9.3010    -4.1500 ha         1 6GN       0.171000
     87 H42        -14.3890    11.4450    -3.1510 ha         1 6GN       0.150000
     88 H43         -2.9290     5.2740     3.9170 hn         1 6GN       0.321500
     89 H44         -0.0810    -0.8380     1.9780 h1         1 6GN       0.068200
     90 H45         -1.5910    -0.0880     1.4430 h1         1 6GN       0.068200
     91 C16        -14.6110    13.2560    -1.3740 c3         1 6GN      -0.072400
     92 HN3          1.8030     0.9250     0.1880 hn         1 6GN       0.460800
@<TRIPOS>BOND
     1     2     1 1
     2    46     1 1
     3    46     3 1
     4     3     4 1
     5     7     4 1
     6     7    45 1
     7    45    10 1
     8    10    13 1
     9    13    44 1
    10     6    14 2
    11    44    14 1
    12    14    15 1
    13    15    16 1
    14    16    17 1
    15    17     9 2
    16    17     5 1
    17    41    42 ar
    18    41    40 ar
    19     5    18 1
    20    42    43 ar
    21    40    39 ar
    22    18    19 1
    23    43    38 ar
    24    39    38 ar
    25    39     8 2
    26    20    19 1
    27    20     8 1
    28    21    22 1
    29    38    35 ar
    30    23    22 1
    31     8    37 1
    32    12    22 1
    33    22    24 1
    34    35    91 1
    35    35    36 ar
    36    37    36 ar
    37    91    34 1
    38    24    25 1
    39    25    26 1
    40    34    11 2
    41    34    33 1
    42    26    11 1
    43    11    27 1
    44    33    28 1
    45    27    28 ar
    46    27    32 ar
    47    28    29 ar
    48    32    31 ar
    49    29    30 ar
    50    31    30 ar
    51     1    47 1
    52     1    48 1
    53     2    49 1
    54     2    50 1
    55     4    51 1
    56     4    52 1
    57     5    53 1
    58     7    54 1
    59     7    55 1
    60    10    56 1
    61    10    57 1
    62    13    58 1
    63    13    59 1
    64    15    60 1
    65    15    61 1
    66    16    62 1
    67    16    63 1
    68    18    64 1
    69    18    65 1
    70    19    66 1
    71    19    67 1
    72    20    68 1
    73    20    69 1
    74    24    70 1
    75    24    71 1
    76    25    72 1
    77    25    73 1
    78    26    74 1
    79    26    75 1
    80    29    76 1
    81    30    77 1
    82    31    78 1
    83    32    79 1
    84    91    80 1
    85    91    81 1
    86    36    82 1
    87    37    83 1
    88    40    84 1
    89    41    85 1
    90    42    86 1
    91    43    87 1
    92    44    88 1
    93    46    89 1
    94    46    90 1
    95    92     2 1
@<TRIPOS>SUBSTRUCTURE
     1 6GN         1 TEMP              0 ****  ****    0 ROOT
