@<TRIPOS>MOLECULE
molecule
   19    20     1     0     0
SMALL
bcc


@<TRIPOS>ATOM
      1 C6A          0.0000     0.0000     0.0000 c3         1 6GO       0.138700
      2 O6           1.4290     0.0000     0.0000 os         1 6GO      -0.450100
      3 C6           2.0440     0.0000     1.2070 ca         1 6GO       0.717600
      4 N1           1.3340    -0.0000     2.3300 nb         1 6GO      -0.824000
      5 C5           3.4350    -0.0060     1.2960 ca         1 6GO      -0.376800
      6 N7           4.4750    -0.0120     0.3870 na         1 6GO      -0.239300
      7 C8           5.6250    -0.0160     1.0970 cc         1 6GO       0.455700
      8 N9           5.3630    -0.0130     2.3750 nd         1 6GO      -0.677700
      9 C4           4.0320    -0.0060     2.5690 ca         1 6GO       0.646300
     10 N3           3.2430    -0.0010     3.6480 nb         1 6GO      -0.728000
     11 C2           1.9280    -0.0010     3.5160 ca         1 6GO       0.957900
     12 N2           1.1410    -0.0010     4.6570 nv         1 6GO      -1.054500
     13 H6A         -0.3610    -0.0000    -1.0210 h1         1 6GO       0.050367
     14 H6AA        -0.3610    -0.8840     0.5110 h1         1 6GO       0.050367
     15 H6AB        -0.3610     0.8850     0.5110 h1         1 6GO       0.050367
     16 H8           6.6190    -0.0210     0.6670 h5         1 6GO       0.080800
     17 HN2          0.8660    -0.8680     5.0750 hn         1 6GO       0.444800
     18 HN2A         0.8670     0.8650     5.0760 hn         1 6GO       0.444800
     19 HN7          4.3930    -0.0140    -0.6100 hn         1 6GO       0.313700
@<TRIPOS>BOND
     1     2     1 1   
     2     1    13 1   
     3     1    14 1   
     4     1    15 1   
     5     2     3 1   
     6     5     3 ar  
     7     3     4 ar  
     8     4    11 ar  
     9     6     5 1   
    10     5     9 ar  
    11     7     6 1   
    12     7     8 2   
    13     7    16 1   
    14     8     9 1   
    15     9    10 ar  
    16    10    11 ar  
    17    11    12 1   
    18    12    17 1   
    19    12    18 1   
    20     6    19 1   
@<TRIPOS>SUBSTRUCTURE
     1 6GO         1 TEMP              0 ****  ****    0 ROOT
