@<TRIPOS>MOLECULE
molecule
   33    33     1     0     0
SMALL
bcc


@<TRIPOS>ATOM
      1 C1           0.0000     0.0000     0.0000 c3         1 6GP       0.306500
      2 C2           1.5310     0.0000     0.0000 c3         1 6GP       0.096100
      3 O2           2.0090    -1.1670    -0.6720 oh         1 6GP      -0.592800
      4 C3           2.0300     0.0000     1.4490 c3         1 6GP       0.116100
      5 O3           3.4510     0.1490     1.4700 oh         1 6GP      -0.605800
      6 C4           1.3790     1.1710     2.1920 c3         1 6GP       0.103100
      7 O4           1.7130     1.1050     3.5800 oh         1 6GP      -0.598800
      8 C5          -0.1400     1.0840     2.0270 c3         1 6GP       0.138100
      9 O5          -0.4820     1.1770     0.6460 os         1 6GP      -0.393600
     10 C6          -0.8010     2.2310     2.7930 c3         1 6GP       0.151400
     11 O6          -2.2220     2.0820     2.7430 oh         1 6GP      -0.595800
     12 N1          -0.4870    -0.0330    -1.3810 ns         1 6GP      -0.545900
     13 C7          -1.6110    -0.7130    -1.6830 c          1 6GP       0.630100
     14 O7          -2.2200    -1.2970    -0.8110 o          1 6GP      -0.549100
     15 C8          -2.1080    -0.7460    -3.0920 c          1 6GP       0.578100
     16 O8          -1.4990    -0.1620    -3.9640 o          1 6GP      -0.546000
     17 C9          -3.7130    -1.4570    -4.7630 c3         1 6GP       0.144700
     18 O9          -3.2300    -1.4240    -3.3940 os         1 6GP      -0.400900
     19 H1          -0.3580    -0.8720     0.5340 h2         1 6GP       0.094700
     20 H2           1.8910     0.8880    -0.5050 h1         1 6GP       0.057700
     21 HO2          2.6640    -0.9200    -1.3040 ho         1 6GP       0.414000
     22 H3           1.7510    -0.9310     1.9280 h1         1 6GP       0.067700
     23 HO3          3.8410    -0.6050     1.8800 ho         1 6GP       0.417000
     24 H4           1.7330     2.1050     1.7740 h1         1 6GP       0.057700
     25 HO4          2.3520     1.7680     3.7820 ho         1 6GP       0.414000
     26 H5          -0.4890     0.1360     2.4180 h1         1 6GP       0.071700
     27 H61         -0.4720     2.2130     3.8250 h1         1 6GP       0.035700
     28 H62         -0.5210     3.1750     2.3410 h1         1 6GP       0.035700
     29 HO6         -2.6250     2.7290     3.2990 ho         1 6GP       0.404000
     30 HN1          0.0190     0.4420    -2.1010 hn         1 6GP       0.337500
     31 H91         -4.6200    -2.0490    -4.8120 h1         1 6GP       0.052033
     32 H92         -2.9580    -1.9000    -5.4010 h1         1 6GP       0.052033
     33 H93         -3.9220    -0.4480    -5.0960 h1         1 6GP       0.052033
@<TRIPOS>BOND
     1     1     2 1
     2     1     9 1
     3     1    12 1
     4     1    19 1
     5     2     3 1
     6     2     4 1
     7     2    20 1
     8     3    21 1
     9     4     5 1
    10     4     6 1
    11     4    22 1
    12     5    23 1
    13     6     7 1
    14     6     8 1
    15     6    24 1
    16     7    25 1
    17     8     9 1
    18     8    10 1
    19     8    26 1
    20    10    11 1
    21    10    27 1
    22    10    28 1
    23    11    29 1
    24    12    13 1
    25    12    30 1
    26    13    14 2
    27    13    15 1
    28    15    16 2
    29    15    18 1
    30    17    18 1
    31    17    31 1
    32    17    32 1
    33    17    33 1
@<TRIPOS>SUBSTRUCTURE
     1 6GP         1 TEMP              0 ****  ****    0 ROOT
