@<TRIPOS>MOLECULE
6GQ
   51    53     1     0     0
SMALL
bcc


@<TRIPOS>ATOM
      1 O2           0.0000     0.0000     0.0000 o          1 6GQ      -0.632100
      2 O1          -0.6860     1.1990     3.7460 o          1 6GQ      -0.582800
      3 N            1.0150    -0.0000     2.4180 n3         1 6GQ      -0.504500
      4 C            4.4800     2.4570     7.6180 c3         1 6GQ       0.056200
      5 O            0.7980     2.4450     2.1670 o          1 6GQ      -0.582800
      6 C8           1.9660     0.0000     1.3050 c3         1 6GQ       0.168800
      7 C5           2.8750     2.4410     4.2000 ca         1 6GQ       0.008500
      8 C4           1.7170     1.7280     4.4430 ca         1 6GQ      -0.171500
      9 N3           4.6770     2.7220    -3.9550 nb         1 6GQ      -0.629000
     10 C2           2.3480     1.4820     6.7390 ca         1 6GQ      -0.136000
     11 N1           1.8860     0.0000    -1.1670 n          1 6GQ      -0.163800
     12 C6           3.7700     2.6760     5.2270 ca         1 6GQ      -0.136000
     13 C9           1.2130     0.0000     0.0000 c          1 6GQ       0.573100
     14 C7           0.4550    -1.2640     2.9040 c3         1 6GQ       0.270100
     15 S            0.5760     1.4270     3.1340 sy         1 6GQ       1.056200
     16 C3           1.4540     1.2470     5.7120 ca         1 6GQ       0.008500
     17 C1           3.5050     2.2010     6.4980 ca         1 6GQ      -0.036300
     18 C13          3.3570    -0.0050    -1.1900 c3         1 6GQ       0.050000
     19 C12          3.8340     1.1240    -2.1110 c3         1 6GQ       0.125800
     20 N2           3.1920     0.9830    -3.4250 nh         1 6GQ      -0.469300
     21 C11          1.7330     1.1280    -3.3240 c3         1 6GQ       0.125800
     22 C10          1.1710     0.0010    -2.4530 c3         1 6GQ       0.050000
     23 C14          3.7200     1.8890    -4.3360 ca         1 6GQ       0.489200
     24 C18          5.2050     3.5980    -4.7880 ca         1 6GQ       0.433200
     25 C17          4.7760     3.6770    -6.0980 ca         1 6GQ      -0.252300
     26 C16          3.7750     2.8210    -6.5390 ca         1 6GQ      -0.041000
     27 C15          3.2400     1.9130    -5.6420 ca         1 6GQ      -0.243300
     28 H1           5.3980     2.8630     7.2110 hc         1 6GQ       0.011700
     29 H2           4.0500     3.1660     8.3160 hc         1 6GQ       0.011700
     30 H3           4.6920     1.5270     8.1310 hc         1 6GQ       0.011700
     31 H4           2.5890    -0.8840     1.3620 h1         1 6GQ       0.031700
     32 H5           2.5890     0.8850     1.3620 h1         1 6GQ       0.031700
     33 H6           3.0840     2.8140     3.2050 ha         1 6GQ       0.121000
     34 H7           2.1420     1.1060     7.7340 ha         1 6GQ       0.112000
     35 H8           4.6780     3.2350     5.0370 ha         1 6GQ       0.112000
     36 H9           0.5870    -2.0310     2.1490 h1         1 6GQ       0.006033
     37 H10          0.9660    -1.5610     3.8120 h1         1 6GQ       0.006033
     38 H11         -0.6010    -1.1370     3.1080 h1         1 6GQ       0.006033
     39 H12          0.5470     0.6860     5.9020 ha         1 6GQ       0.121000
     40 H13          3.7110    -0.9570    -1.5690 h1         1 6GQ       0.032950
     41 H14          3.7360     0.1580    -0.1890 h1         1 6GQ       0.032950
     42 H15          4.9100     1.0630    -2.2280 h1         1 6GQ       0.032450
     43 H16          3.5650     2.0800    -1.6790 h1         1 6GQ       0.032450
     44 H17          1.4960     2.0840    -2.8730 h1         1 6GQ       0.032450
     45 H18          1.2970     1.0700    -4.3130 h1         1 6GQ       0.032450
     46 H19          1.3180    -0.9500    -2.9500 h1         1 6GQ       0.032950
     47 H20          0.1150     0.1680    -2.2800 h1         1 6GQ       0.032950
     48 H21          5.9850     4.2640    -4.4400 h4         1 6GQ      -0.021900
     49 H22          5.2150     4.3990    -6.7750 ha         1 6GQ       0.114000
     50 H23          3.4220     2.8630    -7.5620 ha         1 6GQ       0.107000
     51 H24          2.4570     1.2310    -5.9520 ha         1 6GQ       0.124000
@<TRIPOS>BOND
     1     1    13 2   
     2     2    15 2   
     3     3     6 1   
     4     3    14 1   
     5     3    15 1   
     6     4    17 1   
     7     4    28 1   
     8     4    29 1   
     9     4    30 1   
    10     5    15 2   
    11     6    13 1   
    12     6    31 1   
    13     6    32 1   
    14     7     8 ar  
    15     7    12 ar  
    16     7    33 1   
    17     8    15 1   
    18     8    16 ar  
    19     9    23 ar  
    20     9    24 ar  
    21    10    16 ar  
    22    10    17 ar  
    23    10    34 1   
    24    11    13 1   
    25    11    18 1   
    26    11    22 1   
    27    12    17 ar  
    28    12    35 1   
    29    14    36 1   
    30    14    37 1   
    31    14    38 1   
    32    16    39 1   
    33    18    19 1   
    34    18    40 1   
    35    18    41 1   
    36    19    20 1   
    37    19    42 1   
    38    19    43 1   
    39    20    21 1   
    40    20    23 1   
    41    21    22 1   
    42    21    44 1   
    43    21    45 1   
    44    22    46 1   
    45    22    47 1   
    46    23    27 ar  
    47    24    25 ar  
    48    24    48 1   
    49    25    26 ar  
    50    25    49 1   
    51    26    27 ar  
    52    26    50 1   
    53    27    51 1   
@<TRIPOS>SUBSTRUCTURE
     1 6GQ         1 TEMP              0 ****  ****    0 ROOT
