@<TRIPOS>MOLECULE
molecule
   51    53     1     0     0
SMALL
bcc


@<TRIPOS>ATOM
      1 O2           0.0000     0.0000     0.0000 o          1 6GQ      -0.593100
      2 O1          -0.6860     1.1990     3.7460 o          1 6GQ      -0.628800
      3 N            1.0150    -0.0000     2.4180 n3         1 6GQ      -0.800500
      4 C            4.4800     2.4570     7.6180 c3         1 6GQ      -0.056800
      5 O            0.7980     2.4450     2.1670 o          1 6GQ      -0.628800
      6 C8           1.9660     0.0000     1.3050 c3         1 6GQ       0.170800
      7 C5           2.8750     2.4410     4.2000 ca         1 6GQ      -0.026000
      8 C4           1.7170     1.7280     4.4430 ca         1 6GQ      -0.324500
      9 N3           4.6770     2.7220    -3.9550 nb         1 6GQ      -0.743000
     10 C2           2.3480     1.4820     6.7390 ca         1 6GQ      -0.153000
     11 N1           1.8860     0.0000    -1.1670 n          1 6GQ      -0.496800
     12 C6           3.7700     2.6760     5.2270 ca         1 6GQ      -0.153000
     13 C9           1.2130     0.0000     0.0000 c          1 6GQ       0.647100
     14 C7           0.4550    -1.2640     2.9040 c3         1 6GQ       0.227100
     15 S            0.5760     1.4270     3.1340 sy         1 6GQ       1.431200
     16 C3           1.4540     1.2470     5.7120 ca         1 6GQ      -0.026000
     17 C1           3.5050     2.2010     6.4980 ca         1 6GQ      -0.028300
     18 C13          3.3570    -0.0050    -1.1900 c3         1 6GQ       0.104000
     19 C12          3.8340     1.1240    -2.1110 c3         1 6GQ       0.152800
     20 N2           3.1920     0.9830    -3.4250 nh         1 6GQ      -0.701300
     21 C11          1.7330     1.1280    -3.3240 c3         1 6GQ       0.152800
     22 C10          1.1710     0.0010    -2.4530 c3         1 6GQ       0.104000
     23 C14          3.7200     1.8890    -4.3360 ca         1 6GQ       0.614200
     24 C18          5.2050     3.5980    -4.7880 ca         1 6GQ       0.447200
     25 C17          4.7760     3.6770    -6.0980 ca         1 6GQ      -0.282300
     26 C16          3.7750     2.8210    -6.5390 ca         1 6GQ      -0.072000
     27 C15          3.2400     1.9130    -5.6420 ca         1 6GQ      -0.267300
     28 H1           5.3980     2.8630     7.2110 hc         1 6GQ       0.049367
     29 H2           4.0500     3.1660     8.3160 hc         1 6GQ       0.049367
     30 H3           4.6920     1.5270     8.1310 hc         1 6GQ       0.049367
     31 H4           2.5890    -0.8840     1.3620 h1         1 6GQ       0.069200
     32 H5           2.5890     0.8850     1.3620 h1         1 6GQ       0.069200
     33 H6           3.0840     2.8140     3.2050 ha         1 6GQ       0.148000
     34 H7           2.1420     1.1060     7.7340 ha         1 6GQ       0.136500
     35 H8           4.6780     3.2350     5.0370 ha         1 6GQ       0.136500
     36 H9           0.5870    -2.0310     2.1490 h1         1 6GQ       0.046700
     37 H10          0.9660    -1.5610     3.8120 h1         1 6GQ       0.046700
     38 H11         -0.6010    -1.1370     3.1080 h1         1 6GQ       0.046700
     39 H12          0.5470     0.6860     5.9020 ha         1 6GQ       0.148000
     40 H13          3.7110    -0.9570    -1.5690 h1         1 6GQ       0.061700
     41 H14          3.7360     0.1580    -0.1890 h1         1 6GQ       0.061700
     42 H15          4.9100     1.0630    -2.2280 h1         1 6GQ       0.060200
     43 H16          3.5650     2.0800    -1.6790 h1         1 6GQ       0.060200
     44 H17          1.4960     2.0840    -2.8730 h1         1 6GQ       0.060200
     45 H18          1.2970     1.0700    -4.3130 h1         1 6GQ       0.060200
     46 H19          1.3180    -0.9500    -2.9500 h1         1 6GQ       0.061700
     47 H20          0.1150     0.1680    -2.2800 h1         1 6GQ       0.061700
     48 H21          5.9850     4.2640    -4.4400 h4         1 6GQ       0.022100
     49 H22          5.2150     4.3990    -6.7750 ha         1 6GQ       0.138000
     50 H23          3.4220     2.8630    -7.5620 ha         1 6GQ       0.139000
     51 H24          2.4570     1.2310    -5.9520 ha         1 6GQ       0.144000
@<TRIPOS>BOND
     1    26    25 ar  
     2    26    27 ar  
     3    25    24 ar  
     4    27    23 ar  
     5    24     9 ar  
     6    23     9 ar  
     7    23    20 1   
     8    20    19 1   
     9    20    21 1   
    10    19    18 1   
    11    18    11 1   
    12    21    22 1   
    13     5    15 2   
    14     2    15 2   
    15    15     3 1   
    16    15     8 1   
    17    11    22 1   
    18    11    13 1   
    19     3    14 1   
    20     3     6 1   
    21     8     7 ar  
    22     8    16 ar  
    23     7    12 ar  
    24     6    13 1   
    25    13     1 2   
    26    16    10 ar  
    27    12    17 ar  
    28    10    17 ar  
    29    17     4 1   
    30     4    28 1   
    31     4    29 1   
    32     4    30 1   
    33     6    31 1   
    34     6    32 1   
    35     7    33 1   
    36    10    34 1   
    37    12    35 1   
    38    14    36 1   
    39    14    37 1   
    40    14    38 1   
    41    16    39 1   
    42    18    40 1   
    43    18    41 1   
    44    19    42 1   
    45    19    43 1   
    46    21    44 1   
    47    21    45 1   
    48    22    46 1   
    49    22    47 1   
    50    24    48 1   
    51    25    49 1   
    52    26    50 1   
    53    27    51 1   
@<TRIPOS>SUBSTRUCTURE
     1 6GQ         1 TEMP              0 ****  ****    0 ROOT
