@<TRIPOS>MOLECULE
molecule
   38    39     1     0     0
SMALL
bcc


@<TRIPOS>ATOM
      1 C2           0.0000     0.0000     0.0000 c          1 6GS       0.808500
      2 N3           1.3450     0.0000     0.0000 ns         1 6GS      -0.570500
      3 C4           2.0250     0.0000     1.1650 c          1 6GS       0.698700
      4 C5           1.3090    -0.0000     2.3860 cc         1 6GS      -0.376200
      5 F           -3.0160    -1.7200    -0.3440 f          1 6GS      -0.225300
      6 C2'         -2.6920    -1.4380     0.9880 c3         1 6GS       0.110300
      7 C2M         -1.6630    -2.4410     1.5110 c3         1 6GS      -0.108100
      8 C1'         -2.1560     0.0050     1.1210 c3         1 6GS       0.290500
      9 N1          -0.6920     0.0050     1.1530 n          1 6GS      -0.347000
     10 O2          -0.5990    -0.0010    -1.0580 o          1 6GS      -0.680500
     11 O4           3.2430    -0.0010     1.1660 o          1 6GS      -0.688500
     12 C6          -0.0400    -0.0000     2.3570 cd         1 6GS       0.026600
     13 O4'         -2.6870     0.4810     2.3770 os         1 6GS      -0.371600
     14 C3'         -3.9620    -1.4510     1.8680 c3         1 6GS       0.087100
     15 O3'         -5.1150    -1.7490     1.0790 oh         1 6GS      -0.582800
     16 C4'         -4.0430    -0.0130     2.4290 c3         1 6GS       0.120100
     17 C5'         -4.5490    -0.0340     3.8740 c3         1 6GS       0.239400
     18 O5'         -4.7270     1.3070     4.3340 os         1 6GS      -0.581200
     19 PA          -5.2500     1.6630     5.8150 p5         1 6GS       1.414800
     20 O1A         -6.5380     0.9770     6.0620 o          1 6GS      -0.855500
     21 O2A         -4.1650     1.1730     6.9000 o          1 6GS      -0.855500
     22 O3A         -5.4560     3.2540     5.9430 os         1 6GS      -0.708800
     23 PB          -6.2170     4.2020     6.9980 p5         1 6GS       1.303900
     24 O3B         -6.5080     5.6340     6.3220 o          1 6GS      -0.901500
     25 O1B         -7.4980     3.5730     7.3920 o          1 6GS      -0.901500
     26 O2B         -5.2950     4.4020     8.3030 o          1 6GS      -0.901500
     27 H1           1.8440    -0.0020    -0.8680 hn         1 6GS       0.338500
     28 H2           1.8370    -0.0020     3.3320 ha         1 6GS       0.170000
     29 H3          -0.7870    -2.4270     0.8740 hc         1 6GS       0.045700
     30 H4          -1.3780    -2.1730     2.5220 hc         1 6GS       0.045700
     31 H5          -2.0940    -3.4350     1.5090 hc         1 6GS       0.045700
     32 H6          -2.5210     0.6170     0.3040 h2         1 6GS       0.102700
     33 H7          -0.6050     0.0010     3.2810 h4         1 6GS       0.205000
     34 H8          -3.8530    -2.1650     2.6760 h1         1 6GS       0.058700
     35 H9          -5.5130    -2.5440     1.3920 ho         1 6GS       0.397000
     36 H10         -4.6880     0.5950     1.8070 h1         1 6GS       0.085700
     37 H11         -3.8250    -0.5380     4.5020 h1         1 6GS       0.030700
     38 H12         -5.4950    -0.5600     3.9180 h1         1 6GS       0.030700
@<TRIPOS>BOND
     1    26    23 1
     2    25    23 1
     3    23    24 1
     4    23    22 1
     5    21    19 1
     6    15    14 1
     7    17    16 1
     8    17    18 1
     9    22    19 1
    10    19    18 1
    11    19    20 1
    12    16    14 1
    13    16    13 1
    14    14     6 1
    15     5     6 1
    16    13     8 1
    17     6     8 1
    18     6     7 1
    19     8     9 1
    20     9    12 1
    21     9     1 1
    22    12     4 2
    23     1    10 2
    24     1     2 1
    25     4     3 1
    26     2     3 1
    27     3    11 2
    28     2    27 1
    29     4    28 1
    30     7    29 1
    31     7    30 1
    32     7    31 1
    33     8    32 1
    34    12    33 1
    35    14    34 1
    36    15    35 1
    37    16    36 1
    38    17    37 1
    39    17    38 1
@<TRIPOS>SUBSTRUCTURE
     1 6GS         1 TEMP              0 ****  ****    0 ROOT
