@<TRIPOS>MOLECULE
molecule
   20    19     1     0     0
SMALL
bcc


@<TRIPOS>ATOM
      1 OAA          0.0000     0.0000     0.0000 o          1 6GT      -0.870800
      2 CAJ          1.2090     0.0000     0.0000 c          1 6GT       0.891600
      3 OAD          1.8790     0.0000     1.1620 o          1 6GT      -0.870800
      4 CAH          1.9610    -0.0070    -1.3050 c3         1 6GT      -0.180400
      5 CAF          0.9670    -0.0130    -2.4680 c3         1 6GT      -0.066400
      6 CAG          1.7310    -0.0200    -3.7940 c3         1 6GT      -0.082400
      7 CAI          0.7370    -0.0250    -4.9550 c3         1 6GT      -0.182400
      8 CAL          1.4890    -0.0320    -6.2610 c          1 6GT       0.471100
      9 OAC          2.6980    -0.0320    -6.2620 o          1 6GT      -0.558100
     10 CAK          0.7440    -0.0390    -7.5520 c          1 6GT       0.804600
     11 OAB         -0.4690    -0.0380    -7.5510 o          1 6GT      -0.832300
     12 OAE          1.4160    -0.0450    -8.7180 o          1 6GT      -0.832300
     13 H2           2.5840     0.8770    -1.3670 hc         1 6GT       0.024700
     14 H3           2.5840    -0.8920    -1.3580 hc         1 6GT       0.024700
     15 H4           0.3440    -0.8970    -2.4060 hc         1 6GT       0.038700
     16 H5           0.3440     0.8720    -2.4150 hc         1 6GT       0.038700
     17 H6           2.3540     0.8640    -3.8560 hc         1 6GT       0.032700
     18 H7           2.3530    -0.9040    -3.8470 hc         1 6GT       0.032700
     19 H8           0.1140    -0.9090    -4.8930 hc         1 6GT       0.058700
     20 H9           0.1140     0.8600    -4.9020 hc         1 6GT       0.058700
@<TRIPOS>BOND
     1     1     2 1
     2     3     2 1
     3     2     4 1
     4     4     5 1
     5     5     6 1
     6     9     8 2
     7     6     7 1
     8     8     7 1
     9     8    10 1
    10    10    11 1
    11    10    12 1
    12     4    13 1
    13     4    14 1
    14     5    15 1
    15     5    16 1
    16     6    17 1
    17     6    18 1
    18     7    19 1
    19     7    20 1
@<TRIPOS>SUBSTRUCTURE
     1 6GT         1 TEMP              0 ****  ****    0 ROOT
