@<TRIPOS>MOLECULE
6GU
   15    16     1     0     0
SMALL
bcc


@<TRIPOS>ATOM
      1 Cl6          0.0000     0.0000     0.0000 cl         1 6GU      -0.053000
      2 N1           2.6390     0.0000     0.3770 nb         1 6GU      -0.628000
      3 C2           3.9110     0.0000     0.0000 ca         1 6GU       0.721900
      4 N2           4.8990     0.0000     0.9720 nv         1 6GU      -0.633500
      5 N3           4.2680     0.0000    -1.2740 nb         1 6GU      -0.612000
      6 C4           3.3480     0.0000    -2.2300 ca         1 6GU       0.220800
      7 C5           1.9860     0.0000    -1.8700 ca         1 6GU      -0.177200
      8 C6           1.6590     0.0000    -0.5120 ca         1 6GU       0.495300
      9 N7           1.2700     0.0000    -3.0230 nc         1 6GU      -0.481100
     10 C8           2.0830     0.0000    -4.0380 cd         1 6GU       0.245700
     11 N9           3.3760     0.0000    -3.6020 na         1 6GU       0.168000
     12 HN2          5.2560     0.8670     1.3220 hn         1 6GU       0.280800
     13 HN2A         5.2560    -0.8670     1.3220 hn         1 6GU       0.280800
     14 H8           1.7780     0.0000    -5.0770 h5         1 6GU       0.033800
     15 HN9          4.1950     0.0000    -4.1770 hn         1 6GU       0.136700
@<TRIPOS>BOND
     1     1     8 1   
     2     2     3 ar  
     3     2     8 ar  
     4     3     4 1   
     5     3     5 ar  
     6     4    12 1   
     7     4    13 1   
     8     5     6 ar  
     9     6     7 ar  
    10     6    11 1   
    11     7     8 ar  
    12     7     9 1   
    13     9    10 2   
    14    10    11 1   
    15    10    14 1   
    16    11    15 1   
@<TRIPOS>SUBSTRUCTURE
     1 6GU         1 TEMP              0 ****  ****    0 ROOT
