@<TRIPOS>MOLECULE
6GV
   48    50     1     0     0
SMALL
bcc


@<TRIPOS>ATOM
      1 C1           0.0000     0.0000     0.0000 ca         1 6GV       0.289100
      2 C2           1.3870     0.0000     0.0000 ca         1 6GV      -0.314000
      3 C3           2.0800     0.0000     1.1980 ca         1 6GV       0.265100
      4 C9           2.1090    -0.0000     3.6920 cc         1 6GV       0.310500
      5 C12          2.5270     0.0690     5.8640 c          1 6GV       0.542500
      6 C14          0.1700     0.2410     5.2210 ca         1 6GV      -0.139400
      7 C15         -0.6120    -0.8910     5.4150 ca         1 6GV       0.124900
      8 C16         -1.9600    -0.7590     5.6890 ca         1 6GV      -0.107000
      9 C19         -0.4070     1.5020     5.3030 ca         1 6GV      -0.059000
     10 C27         -4.6210     3.0700     1.2520 c3         1 6GV      -0.015100
     11 C4           1.3750    -0.0010     2.4090 ca         1 6GV      -0.200900
     12 C5          -0.0200    -0.0000     2.3990 ca         1 6GV       0.042000
     13 C6          -0.7000     0.0050     1.2000 ca         1 6GV      -0.221500
     14 O7          -0.6780     0.0000    -1.1780 oh         1 6GV      -0.484100
     15 O8           3.4380    -0.0000     1.2000 oh         1 6GV      -0.445100
     16 N10          3.4020    -0.1010     3.8310 nd         1 6GV      -0.591300
     17 N11          3.6940    -0.0600     5.2020 ns         1 6GV       0.085100
     18 N13          1.5400     0.1120     4.9470 n          1 6GV       0.139500
     19 C17         -2.5310     0.4980     5.7700 ca         1 6GV      -0.020000
     20 C18         -1.7540     1.6260     5.5770 ca         1 6GV      -0.107000
     21 O20          2.3900     0.1400     7.0720 o          1 6GV      -0.701500
     22 S21         -2.4620     0.0060     1.1900 sy         1 6GV       1.062200
     23 O22         -2.8590    -1.0120     0.2810 o          1 6GV      -0.590300
     24 O23         -2.8710     0.0340     2.5500 o          1 6GV      -0.590300
     25 N24         -2.9480     1.4420     0.5260 n3         1 6GV      -0.518500
     26 C25         -3.1570     1.5460    -0.9210 c3         1 6GV       0.252100
     27 C26         -3.1690     2.6090     1.3840 c3         1 6GV       0.199500
     28 C28         -2.2340     3.7410     0.9560 c3         1 6GV      -0.015100
     29 F           -0.0550    -2.1200     5.3360 f          1 6GV      -0.120900
     30 H1           1.9280    -0.0010    -0.9380 ha         1 6GV       0.126000
     31 H2          -2.5710    -1.6410     5.8410 ha         1 6GV       0.125000
     32 H3           0.2000     2.3860     5.1520 ha         1 6GV       0.115000
     33 H4          -5.2740     2.2060     1.2250 hc         1 6GV       0.009033
     34 H5          -4.7380     3.6390     0.3370 hc         1 6GV       0.009033
     35 H6          -4.8810     3.6930     2.0990 hc         1 6GV       0.009033
     36 H7          -0.5680     0.0010     3.3330 ha         1 6GV       0.157000
     37 H8          -0.2530    -0.5820    -1.7860 ho         1 6GV       0.421000
     38 H9           3.7530    -0.5290     0.4850 ho         1 6GV       0.405000
     39 H10          4.6050    -0.1180     5.6140 hn         1 6GV       0.223500
     40 H11         -3.5880     0.5990     5.9850 ha         1 6GV       0.110000
     41 H12         -2.2040     2.6100     5.6410 ha         1 6GV       0.109000
     42 H13         -4.0550     2.1190    -1.1160 h1         1 6GV       0.011700
     43 H14         -3.2620     0.5540    -1.3420 h1         1 6GV       0.011700
     44 H15         -2.3070     2.0430    -1.3730 h1         1 6GV       0.011700
     45 H16         -2.9660     2.3430     2.4140 h1         1 6GV       0.050700
     46 H17         -1.2240     3.3590     0.8590 hc         1 6GV       0.009033
     47 H18         -2.2530     4.5270     1.7020 hc         1 6GV       0.009033
     48 H19         -2.5610     4.1400     0.0030 hc         1 6GV       0.009033
@<TRIPOS>BOND
     1     1     2 ar  
     2     1    13 ar  
     3     1    14 1   
     4     2     3 ar  
     5     2    30 1   
     6     3    11 ar  
     7     3    15 1   
     8     4    11 1   
     9     4    16 2   
    10     4    18 1   
    11     5    17 1   
    12     5    18 1   
    13     5    21 2   
    14     6     7 ar  
    15     6     9 ar  
    16     6    18 1   
    17     7     8 ar  
    18     7    29 1   
    19     8    19 ar  
    20     8    31 1   
    21     9    20 ar  
    22     9    32 1   
    23    10    27 1   
    24    10    33 1   
    25    10    34 1   
    26    10    35 1   
    27    11    12 ar  
    28    12    13 ar  
    29    12    36 1   
    30    13    22 1   
    31    14    37 1   
    32    15    38 1   
    33    16    17 1   
    34    17    39 1   
    35    19    20 ar  
    36    19    40 1   
    37    20    41 1   
    38    22    23 2   
    39    22    24 2   
    40    22    25 1   
    41    25    26 1   
    42    25    27 1   
    43    26    42 1   
    44    26    43 1   
    45    26    44 1   
    46    27    28 1   
    47    27    45 1   
    48    28    46 1   
    49    28    47 1   
    50    28    48 1   
@<TRIPOS>SUBSTRUCTURE
     1 6GV         1 TEMP              0 ****  ****    0 ROOT
