@<TRIPOS>MOLECULE
molecule
   51    54     1     0     0
SMALL
bcc


@<TRIPOS>ATOM
      1 C1           0.0000     0.0000     0.0000 ca         1 6GW      -0.118000
      2 C2           2.1660     5.1600    -0.5730 ca         1 6GW       0.232100
      3 C3           2.9420     4.8630    -1.6800 ca         1 6GW      -0.323000
      4 C7           1.5100     4.1320     0.1230 ca         1 6GW      -0.204600
      5 C8           2.5650     1.1180    -1.8730 cc         1 6GW       0.434500
      6 C14          2.4190    -1.0880    -1.9350 c          1 6GW       0.767500
      7 C16          1.3870     0.0000     0.0000 ca         1 6GW       0.044600
      8 C19          0.0010    -0.0010     2.3940 ca         1 6GW      -0.112000
      9 C21          0.6840     4.4470     1.3020 c          1 6GW       0.691700
     10 C24         -1.3620     4.1970     2.6020 c3         1 6GW       0.192300
     11 C27         -1.1790     3.2900     0.2400 c3         1 6GW       0.088300
     12 C30         -3.8120     6.9570     2.0290 cd         1 6GW      -0.163000
     13 C31         -3.3320     5.6580     2.0090 cd         1 6GW      -0.154000
     14 C4           3.0740     3.5520    -2.1070 ca         1 6GW       0.223100
     15 C5           2.4210     2.5180    -1.4160 ca         1 6GW      -0.181900
     16 C6           1.6420     2.8100    -0.3040 ca         1 6GW      -0.031000
     17 N9           3.1650     0.7310    -2.9640 nd         1 6GW      -0.466300
     18 N10          2.0900     0.0010    -1.2120 n          1 6GW      -0.306500
     19 O12          2.0430     6.4450    -0.1560 oh         1 6GW      -0.477100
     20 N13          3.0880    -0.6670    -3.0280 ns         1 6GW      -0.332900
     21 C17          2.0790     0.0000     1.2050 ca         1 6GW      -0.063300
     22 C18          1.3840    -0.0000     2.3980 ca         1 6GW      -0.121000
     23 N22         -0.5820     3.9910     1.3790 n          1 6GW      -0.486800
     24 O23          1.1440     5.1200     2.2050 o          1 6GW      -0.589100
     25 C25         -2.1050     5.5060     2.5100 cc         1 6GW      -0.060400
     26 C26         -0.6910     0.0060     1.1970 ca         1 6GW      -0.136000
     27 S28         -1.4890     7.0630     3.0460 ss         1 6GW      -0.100800
     28 C29         -2.9760     7.8580     2.5460 cc         1 6GW      -0.082100
     29 H1          -0.5420     0.0050    -0.9380 ha         1 6GW       0.145000
     30 H2           3.4460     5.6590    -2.2150 ha         1 6GW       0.144000
     31 H3          -0.5420     0.0020     3.3320 ha         1 6GW       0.136000
     32 H4           3.9480     0.8850     0.7000 hc         1 6GW       0.053367
     33 H5           3.9440     0.0000     2.2320 hc         1 6GW       0.053367
     34 H6           3.9480    -0.8840     0.7000 hc         1 6GW       0.053367
     35 H7          -0.6950     4.2200     3.4560 h1         1 6GW       0.067700
     36 H8          -2.0710     3.3870     2.7190 h1         1 6GW       0.067700
     37 H9          -1.0330     3.8740    -0.6610 h1         1 6GW       0.042033
     38 H10         -2.2400     3.1550     0.4140 h1         1 6GW       0.042033
     39 H11         -0.7060     2.3220     0.1230 h1         1 6GW       0.042033
     40 H13         -3.9090     4.8300     1.6170 ha         1 6GW       0.140000
     41 H14          1.1370     2.0140     0.2300 ha         1 6GW       0.172000
     42 H16          2.8630     6.8950    -0.2780 ho         1 6GW       0.431000
     43 H17          3.4610    -1.2470    -3.7540 hn         1 6GW       0.393500
     44 H18          1.9220    -0.0030     3.3380 ha         1 6GW       0.143000
     45 H19         -1.7740     0.0060     1.1970 ha         1 6GW       0.137000
     46 H20         -3.1810     8.9170     2.6420 h4         1 6GW       0.168000
     47 C20          3.5850     0.0000     1.2090 c3         1 6GW      -0.052800
     48 O15          2.1610    -2.2450    -1.6520 o          1 6GW      -0.649500
     49 O11          3.8350     3.2670    -3.1920 oh         1 6GW      -0.457100
     50 H12         -4.7940     7.2210     1.6540 ha         1 6GW       0.144000
     51 H15          4.0620     4.0670    -3.6360 ho         1 6GW       0.425000
@<TRIPOS>BOND
     1    19     2 1   
     2    24     9 2   
     3     2     3 ar  
     4     2     4 ar  
     5     9     4 1   
     6     9    23 1   
     7     3    14 ar  
     8    10    23 1   
     9    10    25 1   
    10     4    16 ar  
    11    23    11 1   
    12    26     8 ar  
    13    26     1 ar  
    14     8    22 ar  
    15    14    49 1   
    16    14    15 ar  
    17     1     7 ar  
    18    22    21 ar  
    19    25    13 2   
    20    25    27 1   
    21    16    15 ar  
    22    13    12 1   
    23    15     5 1   
    24     7    21 ar  
    25     7    18 1   
    26    21    47 1   
    27    27    28 1   
    28    12    28 2   
    29     5    18 1   
    30     5    17 2   
    31    18     6 1   
    32    17    20 1   
    33     6    48 2   
    34     6    20 1   
    35     1    29 1   
    36     3    30 1   
    37     8    31 1   
    38    47    32 1   
    39    47    33 1   
    40    47    34 1   
    41    10    35 1   
    42    10    36 1   
    43    11    37 1   
    44    11    38 1   
    45    11    39 1   
    46    12    50 1   
    47    13    40 1   
    48    16    41 1   
    49    49    51 1   
    50    19    42 1   
    51    20    43 1   
    52    22    44 1   
    53    26    45 1   
    54    28    46 1   
@<TRIPOS>SUBSTRUCTURE
     1 6GW         1 TEMP              0 ****  ****    0 ROOT
