@<TRIPOS>MOLECULE
6GX
   60    62     1     0     0
SMALL
bcc


@<TRIPOS>ATOM
      1 O1           0.0000     0.0000     0.0000 os         1 6GX      -0.416100
      2 O2          -1.4320    -5.0600     5.4460 o          1 6GX      -0.644100
      3 C11         -1.5930    -4.0420     6.0840 c          1 6GX       0.570100
      4 C12         -2.3520    -4.0810     7.3860 c3         1 6GX      -0.067100
      5 N2          -1.0940    -2.8750     5.6310 ns         1 6GX      -0.205900
      6 C10         -0.3560    -2.8360     4.3650 c3         1 6GX       0.048000
      7 C9           0.0980    -1.4030     4.0840 c3         1 6GX       0.130800
      8 N1           0.8380    -1.3650     2.8150 n7         1 6GX      -0.570200
      9 C8           1.2900     0.0000     2.5110 c3         1 6GX       0.227100
     10 C7           2.0420     0.0000     1.2060 ca         1 6GX      -0.296600
     11 C5           1.3560     0.0000     0.0000 ca         1 6GX       0.689600
     12 C6          -0.6490    -0.0000    -1.2740 c3         1 6GX       0.252700
     13 N            2.0110    -0.0000    -1.1510 nb         1 6GX      -0.747000
     14 C13          3.4290     0.0050     1.1950 ca         1 6GX       0.009000
     15 C14          4.0820     0.0060    -0.0270 ca         1 6GX      -0.299300
     16 C4           3.3330     0.0000    -1.1950 ca         1 6GX       0.669600
     17 O            3.9640    -0.0000    -2.3960 os         1 6GX      -0.427100
     18 C3           3.1390    -0.0060    -3.5630 c3         1 6GX       0.273700
     19 C2           4.0090    -0.0050    -4.7940 ca         1 6GX      -0.108300
     20 C15          5.3860    -0.0050    -4.6650 ca         1 6GX      -0.083000
     21 C16          6.1910    -0.0040    -5.7900 ca         1 6GX      -0.107000
     22 C17          5.6230    -0.0040    -7.0490 ca         1 6GX      -0.088000
     23 C18          4.2360    -0.0040    -7.1830 cp         1 6GX      -0.035000
     24 C1           3.4300    -0.0100    -6.0460 ca         1 6GX      -0.067300
     25 C            1.9290    -0.0150    -6.1840 c3         1 6GX       0.038200
     26 C19          3.6180    -0.0040    -8.5330 cp         1 6GX      -0.030000
     27 C24          2.7150     0.9960    -8.8880 ca         1 6GX      -0.094000
     28 C23          2.1440     0.9920   -10.1450 ca         1 6GX      -0.101500
     29 C22          2.4670    -0.0020   -11.0510 ca         1 6GX      -0.102000
     30 C21          3.3640    -0.9960   -10.7030 ca         1 6GX      -0.101500
     31 C20          3.9450    -0.9990    -9.4520 ca         1 6GX      -0.094000
     32 H1          -3.2140    -3.4290     7.3210 hc         1 6GX       0.021700
     33 H2          -1.7070    -3.7480     8.1900 hc         1 6GX       0.021700
     34 H3          -2.6790    -5.0950     7.5820 hc         1 6GX       0.021700
     35 H4          -1.2520    -2.0300     6.1450 hn         1 6GX       0.171500
     36 H5           0.5100    -3.4830     4.4330 h1         1 6GX       0.032200
     37 H6          -0.9990    -3.1760     3.5620 h1         1 6GX       0.032200
     38 H7           0.7410    -1.0640     4.8870 h1         1 6GX       0.006700
     39 H8          -0.7680    -0.7560     4.0170 h1         1 6GX       0.006700
     40 H9           1.6300    -1.9740     2.8710 hn         1 6GX       0.255800
     41 H11          0.4320     0.6570     2.4330 h1         1 6GX       0.010700
     42 H12          1.9420     0.3490     3.3030 h1         1 6GX       0.010700
     43 H13         -0.3320    -0.8670    -1.8410 h1         1 6GX      -0.000300
     44 H14         -1.7220    -0.0340    -1.1320 h1         1 6GX      -0.000300
     45 H15         -0.3840     0.9010    -1.8140 h1         1 6GX      -0.000300
     46 H16          3.9890     0.0100     2.1220 ha         1 6GX       0.108000
     47 H17          5.1640     0.0080    -0.0690 ha         1 6GX       0.128000
     48 H18          2.5100     0.8760    -3.5640 h1         1 6GX       0.019200
     49 H19          2.5170    -0.8930    -3.5610 h1         1 6GX       0.019200
     50 H20          5.8370    -0.0050    -3.6800 ha         1 6GX       0.119000
     51 H21          7.2690    -0.0040    -5.6840 ha         1 6GX       0.104000
     52 H22          6.2530    -0.0020    -7.9290 ha         1 6GX       0.108000
     53 H23          1.4990    -0.6580    -5.4260 hc         1 6GX       0.016367
     54 H24          1.6580    -0.3830    -7.1660 hc         1 6GX       0.016367
     55 H25          1.5520     0.9930    -6.0600 hc         1 6GX       0.016367
     56 H26          2.4620     1.7740    -8.1780 ha         1 6GX       0.110000
     57 H27          1.4410     1.7690   -10.4210 ha         1 6GX       0.102500
     58 H28          2.0150    -0.0030   -12.0360 ha         1 6GX       0.102000
     59 H29          3.6150    -1.7710   -11.4170 ha         1 6GX       0.102500
     60 H30          4.6470    -1.7780    -9.1810 ha         1 6GX       0.110000
@<TRIPOS>BOND
     1     1    11 1   
     2     1    12 1   
     3     2     3 2   
     4     3     4 1   
     5     3     5 1   
     6     4    32 1   
     7     4    33 1   
     8     4    34 1   
     9     5     6 1   
    10     5    35 1   
    11     6     7 1   
    12     6    36 1   
    13     6    37 1   
    14     7     8 1   
    15     7    38 1   
    16     7    39 1   
    17     8     9 1   
    18     8    40 1   
    19     9    10 1   
    20     9    41 1   
    21     9    42 1   
    22    10    11 ar  
    23    10    14 ar  
    24    11    13 ar  
    25    12    43 1   
    26    12    44 1   
    27    12    45 1   
    28    13    16 ar  
    29    14    15 ar  
    30    14    46 1   
    31    15    16 ar  
    32    15    47 1   
    33    16    17 1   
    34    17    18 1   
    35    18    19 1   
    36    18    48 1   
    37    18    49 1   
    38    19    20 ar  
    39    19    24 ar  
    40    20    21 ar  
    41    20    50 1   
    42    21    22 ar  
    43    21    51 1   
    44    22    23 ar  
    45    22    52 1   
    46    23    24 ar  
    47    23    26 1   
    48    24    25 1   
    49    25    53 1   
    50    25    54 1   
    51    25    55 1   
    52    26    27 ar  
    53    26    31 ar  
    54    27    28 ar  
    55    27    56 1   
    56    28    29 ar  
    57    28    57 1   
    58    29    30 ar  
    59    29    58 1   
    60    30    31 ar  
    61    30    59 1   
    62    31    60 1   
@<TRIPOS>SUBSTRUCTURE
     1 6GX         1 TEMP              0 ****  ****    0 ROOT
