@<TRIPOS>MOLECULE
molecule
   60    62     1     0     0
SMALL
bcc


@<TRIPOS>ATOM
      1 O1           0.0000     0.0000     0.0000 os         1 6GX      -0.425100
      2 O2          -1.4320    -5.0600     5.4460 o          1 6GX      -0.605100
      3 C11         -1.5930    -4.0420     6.0840 c          1 6GX       0.656100
      4 C12         -2.3520    -4.0810     7.3860 c3         1 6GX      -0.172100
      5 N2          -1.0940    -2.8750     5.6310 ns         1 6GX      -0.593900
      6 C10         -0.3560    -2.8360     4.3650 c3         1 6GX       0.110000
      7 C9           0.0980    -1.4030     4.0840 c3         1 6GX       0.138800
      8 N1           0.8380    -1.3650     2.8150 n7         1 6GX      -0.806200
      9 C8           1.2900     0.0000     2.5110 c3         1 6GX       0.227100
     10 C7           2.0420     0.0000     1.2060 ca         1 6GX      -0.273600
     11 C5           1.3560     0.0000     0.0000 ca         1 6GX       0.720600
     12 C6          -0.6490    -0.0000    -1.2740 c3         1 6GX       0.135700
     13 N            2.0110    -0.0000    -1.1510 nb         1 6GX      -0.855000
     14 C13          3.4290     0.0050     1.1950 ca         1 6GX      -0.030000
     15 C14          4.0820     0.0060    -0.0270 ca         1 6GX      -0.311300
     16 C4           3.3330     0.0000    -1.1950 ca         1 6GX       0.704600
     17 O            3.9640    -0.0000    -2.3960 os         1 6GX      -0.441100
     18 C3           3.1390    -0.0060    -3.5630 c3         1 6GX       0.197700
     19 C2           4.0090    -0.0050    -4.7940 ca         1 6GX      -0.095300
     20 C15          5.3860    -0.0050    -4.6650 ca         1 6GX      -0.103000
     21 C16          6.1910    -0.0040    -5.7900 ca         1 6GX      -0.135000
     22 C17          5.6230    -0.0040    -7.0490 ca         1 6GX      -0.110000
     23 C18          4.2360    -0.0040    -7.1830 cp         1 6GX      -0.040000
     24 C1           3.4300    -0.0100    -6.0460 ca         1 6GX      -0.063300
     25 C            1.9290    -0.0150    -6.1840 c3         1 6GX      -0.056800
     26 C19          3.6180    -0.0040    -8.5330 cp         1 6GX      -0.038000
     27 C24          2.7150     0.9960    -8.8880 ca         1 6GX      -0.116000
     28 C23          2.1440     0.9920   -10.1450 ca         1 6GX      -0.130000
     29 C22          2.4670    -0.0020   -11.0510 ca         1 6GX      -0.127000
     30 C21          3.3640    -0.9960   -10.7030 ca         1 6GX      -0.130000
     31 C20          3.9450    -0.9990    -9.4520 ca         1 6GX      -0.116000
     32 H1          -3.2140    -3.4290     7.3210 hc         1 6GX       0.059700
     33 H2          -1.7070    -3.7480     8.1900 hc         1 6GX       0.059700
     34 H3          -2.6790    -5.0950     7.5820 hc         1 6GX       0.059700
     35 H4          -1.2520    -2.0300     6.1450 hn         1 6GX       0.310500
     36 H5           0.5100    -3.4830     4.4330 h1         1 6GX       0.061200
     37 H6          -0.9990    -3.1760     3.5620 h1         1 6GX       0.061200
     38 H7           0.7410    -1.0640     4.8870 h1         1 6GX       0.033200
     39 H8          -0.7680    -0.7560     4.0170 h1         1 6GX       0.033200
     40 H9           1.6300    -1.9740     2.8710 hn         1 6GX       0.355800
     41 H11          0.4320     0.6570     2.4330 h1         1 6GX       0.039700
     42 H12          1.9420     0.3490     3.3030 h1         1 6GX       0.039700
     43 H13         -0.3320    -0.8670    -1.8410 h1         1 6GX       0.045700
     44 H14         -1.7220    -0.0340    -1.1320 h1         1 6GX       0.045700
     45 H15         -0.3840     0.9010    -1.8140 h1         1 6GX       0.045700
     46 H16          3.9890     0.0100     2.1220 ha         1 6GX       0.144000
     47 H17          5.1640     0.0080    -0.0690 ha         1 6GX       0.152000
     48 H18          2.5100     0.8760    -3.5640 h1         1 6GX       0.057700
     49 H19          2.5170    -0.8930    -3.5610 h1         1 6GX       0.057700
     50 H20          5.8370    -0.0050    -3.6800 ha         1 6GX       0.147000
     51 H21          7.2690    -0.0040    -5.6840 ha         1 6GX       0.132000
     52 H22          6.2530    -0.0020    -7.9290 ha         1 6GX       0.135000
     53 H23          1.4990    -0.6580    -5.4260 hc         1 6GX       0.048033
     54 H24          1.6580    -0.3830    -7.1660 hc         1 6GX       0.048033
     55 H25          1.5520     0.9930    -6.0600 hc         1 6GX       0.048033
     56 H26          2.4620     1.7740    -8.1780 ha         1 6GX       0.135000
     57 H27          1.4410     1.7690   -10.4210 ha         1 6GX       0.130000
     58 H28          2.0150    -0.0030   -12.0360 ha         1 6GX       0.129000
     59 H29          3.6150    -1.7710   -11.4170 ha         1 6GX       0.130000
     60 H30          4.6470    -1.7780    -9.1810 ha         1 6GX       0.135000
@<TRIPOS>BOND
     1    15    14 ar
     2    15    16 ar
     3    14    10 ar
     4    20    21 ar
     5    20    19 ar
     6    21    22 ar
     7    17    16 1
     8    17    18 1
     9    16    13 ar
    10    10     9 1
    11    10    11 ar
    12     9     8 1
    13    13    11 ar
    14    11     1 1
    15    18    19 1
    16    19    24 ar
    17     1    12 1
    18    22    23 ar
    19     4     3 1
    20     8     7 1
    21     7     6 1
    22    24    23 ar
    23    24    25 1
    24    23    26 1
    25     3     2 2
    26     3     5 1
    27    31    26 ar
    28    31    30 ar
    29     6     5 1
    30    26    27 ar
    31    30    29 ar
    32    27    28 ar
    33    29    28 ar
    34     4    32 1
    35     4    33 1
    36     4    34 1
    37     5    35 1
    38     6    36 1
    39     6    37 1
    40     7    38 1
    41     7    39 1
    42     8    40 1
    43     9    41 1
    44     9    42 1
    45    12    43 1
    46    12    44 1
    47    12    45 1
    48    14    46 1
    49    15    47 1
    50    18    48 1
    51    18    49 1
    52    20    50 1
    53    21    51 1
    54    22    52 1
    55    25    53 1
    56    25    54 1
    57    25    55 1
    58    27    56 1
    59    28    57 1
    60    29    58 1
    61    30    59 1
    62    31    60 1
@<TRIPOS>SUBSTRUCTURE
     1 6GX         1 TEMP              0 ****  ****    0 ROOT
