@<TRIPOS>MOLECULE
molecule
   59    62     1     0     0
SMALL
bcc


@<TRIPOS>ATOM
      1 Br           0.0000     0.0000     0.0000 br         1 6GZ      -0.124100
      2 C16          1.8910     0.0000     0.0000 ca         1 6GZ      -0.053900
      3 C15          2.5830     0.0000     1.1970 ca         1 6GZ      -0.080000
      4 C7           3.9650    -0.0010     1.1970 ca         1 6GZ      -0.078300
      5 C8           4.7170    -0.0000     2.5030 c3         1 6GZ       0.189100
      6 N            4.9610    -1.3850     2.9280 n3         1 6GZ      -0.685600
      7 C13          5.9980    -1.4430     3.9660 c3         1 6GZ       0.068500
      8 C14          7.2660    -0.8180     3.4440 c          1 6GZ       0.897600
      9 O2           7.3350    -0.4640     2.2900 o          1 6GZ      -0.842800
     10 O1           8.3190    -0.6520     4.2600 o          1 6GZ      -0.842800
     11 C12          5.5260    -0.6780     5.2050 c3         1 6GZ      -0.098400
     12 C11          4.2270    -1.3040     5.7200 c3         1 6GZ      -0.084400
     13 C10          3.1780    -1.2760     4.6050 c3         1 6GZ      -0.125400
     14 C9           3.7190    -2.0230     3.3840 c3         1 6GZ       0.152800
     15 C6           4.6600    -0.0010     0.0020 ca         1 6GZ      -0.042000
     16 C5           3.9730    -0.0010    -1.1970 ca         1 6GZ      -0.231000
     17 C4           2.5860    -0.0060    -1.2010 ca         1 6GZ       0.140100
     18 O            1.9090    -0.0060    -2.3800 os         1 6GZ      -0.329900
     19 C3           2.6900    -0.0020    -3.5760 c3         1 6GZ       0.187700
     20 C2           1.7740    -0.0030    -4.7730 ca         1 6GZ      -0.085300
     21 C17          0.4020    -0.0080    -4.5930 ca         1 6GZ      -0.093000
     22 C18         -0.4440    -0.0080    -5.6870 ca         1 6GZ      -0.140000
     23 C19          0.0770    -0.0050    -6.9660 ca         1 6GZ      -0.116000
     24 C20          1.4560     0.0000    -7.1530 cp         1 6GZ      -0.050000
     25 C1           2.3050     0.0060    -6.0460 ca         1 6GZ      -0.064300
     26 C            3.7990     0.0180    -6.2420 c3         1 6GZ      -0.056800
     27 C21          2.0220     0.0040    -8.5250 cp         1 6GZ      -0.028000
     28 C26          2.9560    -0.9590    -8.8990 ca         1 6GZ      -0.117000
     29 C25          3.4780    -0.9510   -10.1770 ca         1 6GZ      -0.132000
     30 C24          3.0770     0.0120   -11.0840 ca         1 6GZ      -0.133000
     31 C23          2.1510     0.9720   -10.7180 ca         1 6GZ      -0.132000
     32 C22          1.6170     0.9680    -9.4450 ca         1 6GZ      -0.117000
     33 H1           2.0420     0.0480     2.1340 ha         1 6GZ       0.143000
     34 H2           4.1310     0.5110     3.2580 h1         1 6GZ       0.066200
     35 H3           5.6630     0.5100     2.3750 h1         1 6GZ       0.066200
     36 H5           6.1830    -2.4760     4.2310 h1         1 6GZ       0.059700
     37 H7           5.3480     0.3580     4.9440 hc         1 6GZ       0.052200
     38 H8           6.2850    -0.7370     5.9760 hc         1 6GZ       0.052200
     39 H9           3.8660    -0.7370     6.5700 hc         1 6GZ       0.025700
     40 H10          4.4130    -2.3300     6.0150 hc         1 6GZ       0.025700
     41 H11          2.9670    -0.2480     4.3350 hc         1 6GZ       0.029700
     42 H12          2.2720    -1.7580     4.9510 hc         1 6GZ       0.029700
     43 H13          2.9850    -1.9900     2.5880 h1         1 6GZ       0.042200
     44 H14          3.9210    -3.0530     3.6530 h1         1 6GZ       0.042200
     45 H15          5.7430     0.0010     0.0060 ha         1 6GZ       0.176000
     46 H16          4.5180    -0.0030    -2.1340 ha         1 6GZ       0.129000
     47 H17          3.3120     0.8850    -3.5980 h1         1 6GZ       0.048700
     48 H18          3.3180    -0.8840    -3.6010 h1         1 6GZ       0.048700
     49 H19         -0.0110    -0.0100    -3.5920 ha         1 6GZ       0.161000
     50 H20         -1.5170    -0.0120    -5.5400 ha         1 6GZ       0.129000
     51 H21         -0.5870    -0.0080    -7.8220 ha         1 6GZ       0.128000
     52 H22          4.2620     0.5910    -5.4480 hc         1 6GZ       0.047700
     53 H23          4.1740    -0.9990    -6.2200 hc         1 6GZ       0.047700
     54 H24          4.0340     0.4690    -7.1980 hc         1 6GZ       0.047700
     55 H25          3.2710    -1.7140    -8.1890 ha         1 6GZ       0.136500
     56 H26          4.2040    -1.7000   -10.4690 ha         1 6GZ       0.127000
     57 H27          3.4920     0.0160   -12.0850 ha         1 6GZ       0.124000
     58 H28          1.8380     1.7230   -11.4340 ha         1 6GZ       0.127000
     59 H29          0.8920     1.7200    -9.1590 ha         1 6GZ       0.136500
@<TRIPOS>BOND
     1    12    13 1
     2    12    11 1
     3    13    14 1
     4     9     8 1
     5    14     6 1
     6    11     7 1
     7     8     7 1
     8     8    10 1
     9     6     5 1
    10     6     7 1
    11    15    16 ar
    12    15     4 ar
    13     5     4 1
    14    16    17 ar
    15     4     3 ar
    16    26    25 1
    17    17    18 1
    18    17     2 ar
    19     3     2 ar
    20    19    18 1
    21    19    20 1
    22    30    29 ar
    23    30    31 ar
    24    29    28 ar
    25    25    20 ar
    26    25    24 ar
    27    31    32 ar
    28     2     1 1
    29    28    27 ar
    30    32    27 ar
    31    20    21 ar
    32    27    24 1
    33    24    23 ar
    34    21    22 ar
    35    23    22 ar
    36     3    33 1
    37     5    34 1
    38     5    35 1
    39     7    36 1
    40    11    37 1
    41    11    38 1
    42    12    39 1
    43    12    40 1
    44    13    41 1
    45    13    42 1
    46    14    43 1
    47    14    44 1
    48    15    45 1
    49    16    46 1
    50    19    47 1
    51    19    48 1
    52    21    49 1
    53    22    50 1
    54    23    51 1
    55    26    52 1
    56    26    53 1
    57    26    54 1
    58    28    55 1
    59    29    56 1
    60    30    57 1
    61    31    58 1
    62    32    59 1
@<TRIPOS>SUBSTRUCTURE
     1 6GZ         1 TEMP              0 ****  ****    0 ROOT
