@<TRIPOS>MOLECULE
6GZ
   59    62     1     0     0
SMALL
bcc


@<TRIPOS>ATOM
      1 Br           0.0000     0.0000     0.0000 br         1 6GZ      -0.162100
      2 C16          1.8910     0.0000     0.0000 ca         1 6GZ       0.000100
      3 C15          2.5830     0.0000     1.1970 ca         1 6GZ      -0.069000
      4 C7           3.9650    -0.0010     1.1970 ca         1 6GZ      -0.075300
      5 C8           4.7170    -0.0000     2.5030 c3         1 6GZ       0.144100
      6 N            4.9610    -1.3850     2.9280 n3         1 6GZ      -0.492600
      7 C13          5.9980    -1.4430     3.9660 c3         1 6GZ       0.024500
      8 C14          7.2660    -0.8180     3.4440 c          1 6GZ       0.985600
      9 O2           7.3350    -0.4640     2.2900 o          1 6GZ      -0.889800
     10 O1           8.3190    -0.6520     4.2600 o          1 6GZ      -0.889800
     11 C12          5.5260    -0.6780     5.2050 c3         1 6GZ      -0.049400
     12 C11          4.2270    -1.3040     5.7200 c3         1 6GZ      -0.028400
     13 C10          3.1780    -1.2760     4.6050 c3         1 6GZ      -0.074400
     14 C9           3.7190    -2.0230     3.3840 c3         1 6GZ       0.131800
     15 C6           4.6600    -0.0010     0.0020 ca         1 6GZ      -0.016000
     16 C5           3.9730    -0.0010    -1.1970 ca         1 6GZ      -0.219000
     17 C4           2.5860    -0.0060    -1.2010 ca         1 6GZ       0.139100
     18 O            1.9090    -0.0060    -2.3800 os         1 6GZ      -0.302900
     19 C3           2.6900    -0.0020    -3.5760 c3         1 6GZ       0.256700
     20 C2           1.7740    -0.0030    -4.7730 ca         1 6GZ      -0.095300
     21 C17          0.4020    -0.0080    -4.5930 ca         1 6GZ      -0.074000
     22 C18         -0.4440    -0.0080    -5.6870 ca         1 6GZ      -0.112000
     23 C19          0.0770    -0.0050    -6.9660 ca         1 6GZ      -0.095000
     24 C20          1.4560     0.0000    -7.1530 cp         1 6GZ      -0.046000
     25 C1           2.3050     0.0060    -6.0460 ca         1 6GZ      -0.069300
     26 C            3.7990     0.0180    -6.2420 c3         1 6GZ       0.038200
     27 C21          2.0220     0.0040    -8.5250 cp         1 6GZ      -0.019000
     28 C26          2.9560    -0.9590    -8.8990 ca         1 6GZ      -0.095500
     29 C25          3.4780    -0.9510   -10.1770 ca         1 6GZ      -0.104000
     30 C24          3.0770     0.0120   -11.0840 ca         1 6GZ      -0.109000
     31 C23          2.1510     0.9720   -10.7180 ca         1 6GZ      -0.104000
     32 C22          1.6170     0.9680    -9.4450 ca         1 6GZ      -0.095500
     33 H1           2.0420     0.0480     2.1340 ha         1 6GZ       0.119000
     34 H2           4.1310     0.5110     3.2580 h1         1 6GZ       0.053200
     35 H3           5.6630     0.5100     2.3750 h1         1 6GZ       0.053200
     36 H5           6.1830    -2.4760     4.2310 h1         1 6GZ       0.033700
     37 H7           5.3480     0.3580     4.9440 hc         1 6GZ       0.029700
     38 H8           6.2850    -0.7370     5.9760 hc         1 6GZ       0.029700
     39 H9           3.8660    -0.7370     6.5700 hc         1 6GZ       0.001200
     40 H10          4.4130    -2.3300     6.0150 hc         1 6GZ       0.001200
     41 H11          2.9670    -0.2480     4.3350 hc         1 6GZ       0.009700
     42 H12          2.2720    -1.7580     4.9510 hc         1 6GZ       0.009700
     43 H13          2.9850    -1.9900     2.5880 h1         1 6GZ       0.016200
     44 H14          3.9210    -3.0530     3.6530 h1         1 6GZ       0.016200
     45 H15          5.7430     0.0010     0.0060 ha         1 6GZ       0.145000
     46 H16          4.5180    -0.0030    -2.1340 ha         1 6GZ       0.115000
     47 H17          3.3120     0.8850    -3.5980 h1         1 6GZ       0.014700
     48 H18          3.3180    -0.8840    -3.6010 h1         1 6GZ       0.014700
     49 H19         -0.0110    -0.0100    -3.5920 ha         1 6GZ       0.131000
     50 H20         -1.5170    -0.0120    -5.5400 ha         1 6GZ       0.101000
     51 H21         -0.5870    -0.0080    -7.8220 ha         1 6GZ       0.103000
     52 H22          4.2620     0.5910    -5.4480 hc         1 6GZ       0.016367
     53 H23          4.1740    -0.9990    -6.2200 hc         1 6GZ       0.016367
     54 H24          4.0340     0.4690    -7.1980 hc         1 6GZ       0.016367
     55 H25          3.2710    -1.7140    -8.1890 ha         1 6GZ       0.112000
     56 H26          4.2040    -1.7000   -10.4690 ha         1 6GZ       0.100000
     57 H27          3.4920     0.0160   -12.0850 ha         1 6GZ       0.098000
     58 H28          1.8380     1.7230   -11.4340 ha         1 6GZ       0.100000
     59 H29          0.8920     1.7200    -9.1590 ha         1 6GZ       0.112000
@<TRIPOS>BOND
     1     1     2 1   
     2     2     3 ar  
     3     2    17 ar  
     4     3     4 ar  
     5     3    33 1   
     6     4     5 1   
     7     4    15 ar  
     8     5     6 1   
     9     5    34 1   
    10     5    35 1   
    11     6     7 1   
    12     6    14 1   
    13     7     8 1   
    14     7    11 1   
    15     7    36 1   
    16     8     9 1   
    17     8    10 1   
    18    11    12 1   
    19    11    37 1   
    20    11    38 1   
    21    12    13 1   
    22    12    39 1   
    23    12    40 1   
    24    13    14 1   
    25    13    41 1   
    26    13    42 1   
    27    14    43 1   
    28    14    44 1   
    29    15    16 ar  
    30    15    45 1   
    31    16    17 ar  
    32    16    46 1   
    33    17    18 1   
    34    18    19 1   
    35    19    20 1   
    36    19    47 1   
    37    19    48 1   
    38    20    21 ar  
    39    20    25 ar  
    40    21    22 ar  
    41    21    49 1   
    42    22    23 ar  
    43    22    50 1   
    44    23    24 ar  
    45    23    51 1   
    46    24    25 ar  
    47    24    27 1   
    48    25    26 1   
    49    26    52 1   
    50    26    53 1   
    51    26    54 1   
    52    27    28 ar  
    53    27    32 ar  
    54    28    29 ar  
    55    28    55 1   
    56    29    30 ar  
    57    29    56 1   
    58    30    31 ar  
    59    30    57 1   
    60    31    32 ar  
    61    31    58 1   
    62    32    59 1   
@<TRIPOS>SUBSTRUCTURE
     1 6GZ         1 TEMP              0 ****  ****    0 ROOT
