@<TRIPOS>MOLECULE
molecule
   52    53     1     0     0
SMALL
bcc


@<TRIPOS>ATOM
      1 O1           0.0000     0.0000     0.0000 o          1 6H0      -0.606100
      2 C2           1.2130     0.0000     0.0000 c          1 6H0       0.656900
      3 C4           1.1550     0.0020     2.4360 c3         1 6H0       0.111000
      4 C5           2.1500     0.0030     3.5980 c3         1 6H0      -0.100400
      5 C6           1.3860     0.0040     4.9240 c3         1 6H0      -0.078400
      6 C7           2.3800     0.0050     6.0860 c3         1 6H0       0.136400
      7 C8           2.4080     0.0080     8.4630 ca         1 6H0       0.149100
      8 C9           3.7930     0.0020     8.3920 ca         1 6H0      -0.207000
      9 N3           1.8870     0.0000     1.1670 ns         1 6H0      -0.601900
     10 O7           1.6670     0.0070     7.3240 os         1 6H0      -0.325900
     11 C13          1.7800     0.0100     9.7000 ca         1 6H0      -0.145000
     12 C10          4.5440    -0.0030     9.5510 ca         1 6H0      -0.088000
     13 C11          3.9150    -0.0020    10.7830 ca         1 6H0      -0.156000
     14 C12          2.5350     0.0050    10.8570 ca         1 6H0      -0.098300
     15 C14          1.8540     0.0070    12.2010 c3         1 6H0       0.162300
     16 N15          1.6260    -1.3730    12.6360 ns         1 6H0      -0.563900
     17 C16          1.0260    -1.6180    13.8160 c          1 6H0       0.648700
     18 O17          0.6730    -0.6930    14.5220 o          1 6H0      -0.572100
     19 C18          0.7960    -3.0120    14.2550 ca         1 6H0      -0.036600
     20 C19          1.2050    -4.0760    13.4500 ca         1 6H0      -0.098000
     21 C20          0.9890    -5.3740    13.8640 ca         1 6H0      -0.035000
     22 C21          0.3660    -5.6210    15.0750 ca         1 6H0      -0.332500
     23 S24          0.0930    -7.2820    15.5980 sy         1 6H0       1.225200
     24 O27         -0.9900    -7.2410    16.5170 o          1 6H0      -0.515300
     25 O25          0.0820    -8.0760    14.4200 o          1 6H0      -0.515300
     26 N26          1.4240    -7.7490    16.4650 nz         1 6H0      -0.806500
     27 C22         -0.0410    -4.5710    15.8790 ca         1 6H0      -0.035000
     28 C23          0.1750    -3.2680    15.4780 ca         1 6H0      -0.098000
     29 H1           1.7540    -0.0000    -0.9380 h5         1 6H0       0.028200
     30 H2           0.5330     0.8870     2.4930 h1         1 6H0       0.057200
     31 H3           0.5320    -0.8820     2.4950 h1         1 6H0       0.057200
     32 H4           2.7730     0.8870     3.5400 hc         1 6H0       0.046700
     33 H5           2.7720    -0.8820     3.5410 hc         1 6H0       0.046700
     34 H6           0.7630    -0.8800     4.9820 hc         1 6H0       0.062700
     35 H7           0.7640     0.8890     4.9810 hc         1 6H0       0.062700
     36 H8           3.0030    -0.8800     6.0300 h1         1 6H0       0.037700
     37 H9           3.0030     0.8890     6.0270 h1         1 6H0       0.037700
     38 H10          4.2860     0.0010     7.4270 ha         1 6H0       0.143000
     39 H11          2.8880    -0.0020     1.1660 hn         1 6H0       0.311500
     40 H12          0.6980     0.0150     9.7580 ha         1 6H0       0.150000
     41 H13          5.6250    -0.0080     9.4960 ha         1 6H0       0.139000
     42 H14          4.5060    -0.0050    11.6910 ha         1 6H0       0.134000
     43 H15          2.4820     0.5140    12.9230 h1         1 6H0       0.071200
     44 H16          0.9040     0.5220    12.1230 h1         1 6H0       0.071200
     45 H17          1.9140    -2.1350    12.0530 hn         1 6H0       0.318500
     46 H18          1.6920    -3.8840    12.5020 ha         1 6H0       0.176500
     47 H19          1.3050    -6.2010    13.2400 ha         1 6H0       0.159000
     48 H20          1.5350    -7.1460    17.2560 hn         1 6H0       0.492467
     49 H21          1.3050    -8.6920    16.7780 hn         1 6H0       0.492467
     50 H22         -0.5250    -4.7720    16.8270 ha         1 6H0       0.159000
     51 H23         -0.1440    -2.4460    16.1080 ha         1 6H0       0.176500
     52 H263         2.2400    -7.6750    15.8900 hn         1 6H0       0.492467
@<TRIPOS>BOND
     1     1     2 2   
     2     2     9 1   
     3     3     9 1   
     4     3     4 1   
     5     4     5 1   
     6     5     6 1   
     7    26    23 1   
     8    25    23 2   
     9     6    10 1   
    10    21    20 ar  
    11    21    22 ar  
    12    10     7 1   
    13    23    22 1   
    14    23    24 2   
    15    20    19 ar  
    16    22    27 ar  
    17     7    11 ar  
    18     7     8 ar  
    19    11    14 ar  
    20     8    12 ar  
    21    16    15 1   
    22    16    17 1   
    23    19    17 1   
    24    19    28 ar  
    25    14    15 1   
    26    14    13 ar  
    27    27    28 ar  
    28    12    13 ar  
    29    17    18 2   
    30     2    29 1   
    31     3    30 1   
    32     3    31 1   
    33     4    32 1   
    34     4    33 1   
    35     5    34 1   
    36     5    35 1   
    37     6    36 1   
    38     6    37 1   
    39     8    38 1   
    40     9    39 1   
    41    11    40 1   
    42    12    41 1   
    43    13    42 1   
    44    15    43 1   
    45    15    44 1   
    46    16    45 1   
    47    20    46 1   
    48    21    47 1   
    49    26    48 1   
    50    26    49 1   
    51    27    50 1   
    52    28    51 1   
    53    52    26 1   
@<TRIPOS>SUBSTRUCTURE
     1 6H0         1 TEMP              0 ****  ****    0 ROOT
