@<TRIPOS>MOLECULE
molecule
   32    34     1     0     0
SMALL
bcc


@<TRIPOS>ATOM
      1 C2           0.0000     0.0000     0.0000 ca         1 6H1      -0.051300
      2 C3           1.3820     0.0000     0.0000 ca         1 6H1      -0.122500
      3 C4           2.0740     0.0000     1.1970 ca         1 6H1      -0.082000
      4 C1          -0.7530    -0.0060    -1.3050 c3         1 6H1       0.022200
      5 C5           1.3830     0.0020     2.3940 ca         1 6H1      -0.183300
      6 C6          -0.0000     0.0040     2.3950 ca         1 6H1      -0.082000
      7 C8          -1.0100     1.4110    -1.7460 ca         1 6H1      -0.099300
      8 C7          -0.6910     0.0020     1.1970 ca         1 6H1      -0.122500
      9 C9          -2.0540     2.1320    -1.1860 ca         1 6H1       0.129100
     10 C10         -2.2910     3.4370    -1.5900 ca         1 6H1      -0.177000
     11 C11         -1.4850     4.0210    -2.5530 ca         1 6H1       0.078100
     12 C12         -0.4360     3.2960    -3.1130 ca         1 6H1       0.031100
     13 C13         -0.2000     1.9950    -2.7020 ca         1 6H1      -0.085000
     14 O14          0.2020     4.0860    -4.0270 os         1 6H1      -0.324900
     15 O15         -1.5040     5.2650    -3.1150 os         1 6H1      -0.323900
     16 C16         -0.7160     5.1570    -4.3150 c3         1 6H1       0.332200
     17 O17         -2.8460     1.5580    -0.2410 oh         1 6H1      -0.505100
     18 C18          2.1360     0.0020     3.6990 c3         1 6H1       0.673200
     19 F19          1.3790    -0.6560     4.6750 f          1 6H1      -0.224967
     20 F20          3.3570    -0.6600     3.5330 f          1 6H1      -0.224967
     21 F21          2.3720     1.3200     4.1030 f          1 6H1      -0.224967
     22 H1           1.9240    -0.0020    -0.9380 ha         1 6H1       0.145000
     23 H2           3.1570    -0.0010     1.1980 ha         1 6H1       0.145500
     24 H3          -1.6980    -0.5200    -1.1740 hc         1 6H1       0.061200
     25 H4          -0.1660    -0.5180    -2.0580 hc         1 6H1       0.061200
     26 H5          -0.5420     0.0050     3.3330 ha         1 6H1       0.145500
     27 H6          -1.7740     0.0020     1.1970 ha         1 6H1       0.145000
     28 H7          -3.1070     3.9990    -1.1530 ha         1 6H1       0.150000
     29 H8           0.6120     1.4280    -3.1420 ha         1 6H1       0.149000
     30 H9          -1.3500     4.8820    -5.1490 h2         1 6H1       0.072700
     31 H10         -3.7510     1.7340    -0.4410 ho         1 6H1       0.422000
     32 H11         -0.1670     6.0760    -4.4790 h2         1 6H1       0.072700
@<TRIPOS>BOND
     1    20    18 1   
     2     3     2 ar  
     3     3     5 ar  
     4    18     5 1   
     5    18    21 1   
     6    18    19 1   
     7     2     1 ar  
     8     5     6 ar  
     9     1     8 ar  
    10     1     4 1   
    11     6     8 ar  
    12     4     7 1   
    13    17     9 1   
    14     7     9 ar  
    15     7    13 ar  
    16     9    10 ar  
    17    13    12 ar  
    18    10    11 ar  
    19    12    11 ar  
    20    12    14 1   
    21    11    15 1   
    22    14    16 1   
    23    15    16 1   
    24     2    22 1   
    25     3    23 1   
    26     4    24 1   
    27     4    25 1   
    28     6    26 1   
    29     8    27 1   
    30    10    28 1   
    31    13    29 1   
    32    16    30 1   
    33    17    31 1   
    34    16    32 1   
@<TRIPOS>SUBSTRUCTURE
     1 6H1         1 TEMP              0 ****  ****    0 ROOT
