@<TRIPOS>MOLECULE
molecule
   27    29     1     0     0
SMALL
bcc


@<TRIPOS>ATOM
      1 C2           0.0000     0.0000     0.0000 ca         1 6H2      -0.007800
      2 C3           1.3930     0.0000     0.0000 ca         1 6H2      -0.123000
      3 C4           2.0820     0.0000     1.1990 ca         1 6H2       0.087100
      4 C5           1.3830     0.0010     2.4030 ca         1 6H2       0.093100
      5 C6          -0.0040     0.0020     2.4020 ca         1 6H2      -0.155000
      6 C7          -0.6950     0.0060     1.2070 ca         1 6H2      -0.117000
      7 O8           2.0610     0.0010     3.5820 oh         1 6H2      -0.511100
      8 O9           3.4430    -0.0010     1.2020 oh         1 6H2      -0.509100
      9 C10         -0.7440     0.0010    -1.2850 cc         1 6H2       0.136400
     10 N11         -0.1950    -0.0060    -2.5100 nc         1 6H2      -0.311600
     11 C12         -1.1610    -0.0040    -3.4170 cd         1 6H2      -0.021300
     12 N13         -2.3650     0.0030    -2.7630 na         1 6H2       0.050700
     13 C14         -2.0990     0.0010    -1.4230 cd         1 6H2      -0.237100
     14 C15         -1.1330    -0.0090    -4.8270 cd         1 6H2      -0.083000
     15 C16         -2.3050    -0.0050    -5.5170 cc         1 6H2      -0.128000
     16 C17         -3.5240     0.0030    -4.8180 cc         1 6H2      -0.157000
     17 C18         -3.5350     0.0070    -3.4690 cd         1 6H2      -0.082300
     18 H1           1.9360    -0.0030    -0.9380 ha         1 6H2       0.165000
     19 H2          -0.5450     0.0050     3.3410 ha         1 6H2       0.142000
     20 H3          -1.7780     0.0060     1.2080 ha         1 6H2       0.131000
     21 H4           2.0140    -0.8560     3.9720 ho         1 6H2       0.422000
     22 H5           3.7580     0.8440     0.9290 ho         1 6H2       0.423000
     23 H6          -2.8190    -0.1650    -0.6300 h4         1 6H2       0.181000
     24 H7          -0.1870    -0.0150    -5.3550 ha         1 6H2       0.161000
     25 H8          -2.2990    -0.0090    -6.6010 ha         1 6H2       0.144000
     26 H9          -4.4590     0.0060    -5.3650 ha         1 6H2       0.150000
     27 H10         -4.4800     0.0130    -2.9400 h4         1 6H2       0.160000
@<TRIPOS>BOND
     1     7     4 1   
     2     8     3 1   
     3     4     3 ar  
     4     4     5 ar  
     5     3     2 ar  
     6     5     6 ar  
     7     2     1 ar  
     8     6     1 ar  
     9     1     9 1   
    10     9    13 2   
    11     9    10 1   
    12    13    12 1   
    13    10    11 2   
    14    12    11 1   
    15    12    17 1   
    16    11    14 1   
    17    17    16 2   
    18    14    15 2   
    19    16    15 1   
    20     2    18 1   
    21     5    19 1   
    22     6    20 1   
    23     7    21 1   
    24     8    22 1   
    25    13    23 1   
    26    14    24 1   
    27    15    25 1   
    28    16    26 1   
    29    17    27 1   
@<TRIPOS>SUBSTRUCTURE
     1 6H2         1 TEMP              0 ****  ****    0 ROOT
