@<TRIPOS>MOLECULE
6H3
   61    64     1     0     0
SMALL
bcc


@<TRIPOS>ATOM
      1 C18          0.0000     0.0000     0.0000 ca         1 6H3      -0.425200
      2 C13          3.4830     0.1030     3.4690 ca         1 6H3      -0.034400
      3 C12          4.1070     0.8720     2.4960 ca         1 6H3      -0.088000
      4 C17          1.3810     0.0000     0.0000 ca         1 6H3       0.536200
      5 C15          1.3710     0.0010     2.3060 ca         1 6H3       0.739900
      6 C11          5.4830     0.9780     2.4770 ca         1 6H3      -0.130000
      7 C10          4.2440    -0.5610     4.4230 ca         1 6H3      -0.088000
      8 C22         -2.7090    -0.1100     2.5070 ca         1 6H3      -0.032400
      9 C20         -0.6670     0.0060     1.2280 ca         1 6H3       0.576200
     10 N02         10.3010    -0.5640     3.1940 n3         1 6H3      -0.549600
     11 C03          9.6980     0.2130     2.1030 c3         1 6H3       0.153300
     12 C04          8.1820     0.0050     2.1110 c3         1 6H3       0.135800
     13 C05          9.7590    -0.1490     4.4950 c3         1 6H3       0.153300
     14 C06          8.2420    -0.3560     4.5030 c3         1 6H3       0.135800
     15 N07          7.6390     0.4220     3.4110 nh         1 6H3      -0.365000
     16 C08          6.2440     0.3140     3.4310 ca         1 6H3       0.013600
     17 C09          5.6200    -0.4600     4.4000 ca         1 6H3      -0.130000
     18 N14          2.0860     0.0000     3.4930 nu         1 6H3      -0.274300
     19 N16          2.0300     0.0000     1.1560 nb         1 6H3      -0.725000
     20 Cl19        -0.8870     0.0000    -1.4920 cl         1 6H3      -0.008400
     21 N21         -2.0520     0.0060     1.2760 nu         1 6H3      -0.289300
     22 C23         -2.0540    -0.6660     3.5960 ca         1 6H3      -0.121000
     23 C24         -2.7040    -0.7790     4.8100 ca         1 6H3      -0.095000
     24 C25         -4.0090    -0.3410     4.9430 ca         1 6H3      -0.100000
     25 C26         -4.6710     0.2140     3.8630 ca         1 6H3      -0.099000
     26 C27         -4.0230     0.3370     2.6430 ca         1 6H3      -0.124400
     27 N28         -4.6910     0.9000     1.5470 ns         1 6H3      -0.039100
     28 C29         -6.0340     0.8140     1.4600 c          1 6H3       0.561100
     29 C30         -6.7440     1.3430     0.2410 c3         1 6H3      -0.099400
     30 C31         -8.2510     1.1230     0.3940 c3         1 6H3       0.021900
     31 O32         -6.6690     0.3100     2.3610 o          1 6H3      -0.626100
     32 N33          0.0480     0.0110     2.3490 nb         1 6H3      -0.741000
     33 H1           3.5140     1.3900     1.7530 ha         1 6H3       0.119000
     34 H2           1.9290    -0.0030    -0.9350 h4         1 6H3      -0.010900
     35 H3           5.9690     1.5790     1.7180 ha         1 6H3       0.118500
     36 H4           3.7570    -1.1630     5.1800 ha         1 6H3       0.119000
     37 H5          12.0510     0.5820     3.3230 h1         1 6H3       0.000700
     38 H6          12.1410    -0.7960     2.2170 h1         1 6H3       0.000700
     39 H7          12.1850    -1.0610     3.9650 h1         1 6H3       0.000700
     40 H9           9.9180     1.2640     2.2460 h1         1 6H3       0.014700
     41 H10         10.1030    -0.1210     1.1560 h1         1 6H3       0.014700
     42 H11          7.9610    -1.0420     1.9470 h1         1 6H3       0.024700
     43 H12          7.7330     0.6020     1.3260 h1         1 6H3       0.024700
     44 H13         10.2070    -0.7460     5.2800 h1         1 6H3       0.014700
     45 H14          9.9800     0.8990     4.6600 h1         1 6H3       0.014700
     46 H15          7.8380    -0.0210     5.4500 h1         1 6H3       0.024700
     47 H16          8.0220    -1.4070     4.3610 h1         1 6H3       0.024700
     48 H17          6.2140    -0.9780     5.1440 ha         1 6H3       0.118500
     49 H18          1.6020    -0.0370     4.3680 hn         1 6H3       0.292800
     50 H19         -2.5820     0.0370     0.4280 hn         1 6H3       0.289800
     51 H20         -1.0320    -1.0110     3.4950 ha         1 6H3       0.156000
     52 H21         -2.1910    -1.2130     5.6590 ha         1 6H3       0.101000
     53 H22         -4.5150    -0.4340     5.8960 ha         1 6H3       0.104000
     54 H23         -5.6920     0.5580     3.9720 ha         1 6H3       0.159000
     55 H24         -4.1770     1.4070     0.8550 hn         1 6H3       0.162500
     56 H25         -6.5430     2.4030     0.1380 hc         1 6H3       0.025700
     57 H26         -6.3900     0.8200    -0.6390 hc         1 6H3       0.025700
     58 H27         -8.4470     0.0710     0.5610 hc         1 6H3       0.010700
     59 H28         -8.6160     1.6970     1.2370 hc         1 6H3       0.010700
     60 H29         -8.7560     1.4460    -0.5090 hc         1 6H3       0.010700
     61 C01         11.7660    -0.4520     3.1740 c3         1 6H3       0.189100
@<TRIPOS>BOND
     1     1     4 ar  
     2     1     9 ar  
     3     1    20 1   
     4     2     3 ar  
     5     2     7 ar  
     6     2    18 1   
     7     3     6 ar  
     8     3    33 1   
     9     4    19 ar  
    10     4    34 1   
    11     5    18 1   
    12     5    19 ar  
    13     5    32 ar  
    14     6    16 ar  
    15     6    35 1   
    16     7    17 ar  
    17     7    36 1   
    18     8    21 1   
    19     8    22 ar  
    20     8    26 ar  
    21     9    21 1   
    22     9    32 ar  
    23    10    11 1   
    24    10    13 1   
    25    10    61 1   
    26    11    12 1   
    27    11    40 1   
    28    11    41 1   
    29    12    15 1   
    30    12    42 1   
    31    12    43 1   
    32    13    14 1   
    33    13    44 1   
    34    13    45 1   
    35    14    15 1   
    36    14    46 1   
    37    14    47 1   
    38    15    16 1   
    39    16    17 ar  
    40    17    48 1   
    41    18    49 1   
    42    21    50 1   
    43    22    23 ar  
    44    22    51 1   
    45    23    24 ar  
    46    23    52 1   
    47    24    25 ar  
    48    24    53 1   
    49    25    26 ar  
    50    25    54 1   
    51    26    27 1   
    52    27    28 1   
    53    27    55 1   
    54    28    29 1   
    55    28    31 2   
    56    29    30 1   
    57    29    56 1   
    58    29    57 1   
    59    30    58 1   
    60    30    59 1   
    61    30    60 1   
    62    37    61 1   
    63    38    61 1   
    64    39    61 1   
@<TRIPOS>SUBSTRUCTURE
     1 6H3         1 TEMP              0 ****  ****    0 ROOT
