@<TRIPOS>MOLECULE
molecule
   58    61     1     0     0
SMALL
bcc


@<TRIPOS>ATOM
      1 C10          0.0000     0.0000     0.0000 ca         1 6H4      -0.117000
      2 C11          1.3940    -0.0010     2.3980 ca         1 6H4      -0.153000
      3 C12          2.0830     0.0000     1.2020 ca         1 6H4      -0.117000
      4 C13          1.3880     0.0000     0.0000 ca         1 6H4       0.123600
      5 C15          3.2810     0.6980    -1.3240 ca         1 6H4       0.972900
      6 C17          4.9240     1.9620    -0.3200 ca         1 6H4       0.526200
      7 C18          5.5900     2.0450    -1.5290 ca         1 6H4      -0.304200
      8 C20          5.0380     1.4040    -2.6380 ca         1 6H4       0.729600
      9 N02         -1.4940     1.0810     6.1250 n3         1 6H4      -0.722600
     10 C03         -0.5690    -0.0600     6.0550 c3         1 6H4       0.160800
     11 C04          0.2310     0.0170     4.7520 c3         1 6H4       0.120300
     12 C05         -2.4200     1.0760     4.9840 c3         1 6H4       0.160800
     13 C06         -1.6200     1.1520     3.6820 c3         1 6H4       0.120300
     14 N07         -0.6940     0.0120     3.6110 nh         1 6H4      -0.590000
     15 C08          0.0050     0.0090     2.3990 ca         1 6H4       0.088600
     16 C09         -0.6900     0.0040     1.1960 ca         1 6H4      -0.153000
     17 N14          2.0880     0.0010    -1.2140 nu         1 6H4      -0.743300
     18 N16          3.7860     1.2890    -0.2530 nb         1 6H4      -0.805000
     19 Cl19         7.0840     2.9190    -1.6620 cl         1 6H4      -0.084400
     20 O21          5.6570     1.4580    -3.8420 os         1 6H4      -0.340400
     21 C22          5.0240     0.9050    -4.9110 ca         1 6H4       0.064100
     22 C23          5.3820    -0.3590    -5.3520 ca         1 6H4      -0.102000
     23 C24          4.7380    -0.9200    -6.4380 ca         1 6H4      -0.140000
     24 C25          3.7350    -0.2240    -7.0880 ca         1 6H4      -0.106000
     25 C26          3.3710     1.0360    -6.6540 ca         1 6H4      -0.124000
     26 C27          4.0100     1.6050    -5.5610 ca         1 6H4       0.068600
     27 N28          3.6440     2.8820    -5.1210 ns         1 6H4      -0.470100
     28 C29          2.3630     3.2870    -5.2180 c          1 6H4       0.664300
     29 C30          2.0000     4.6710    -4.8750 ce         1 6H4      -0.253200
     30 C31          0.7350     5.0700    -4.9720 c2         1 6H4      -0.124000
     31 O32          1.5050     2.5080    -5.5910 o          1 6H4      -0.601100
     32 N33          3.8910     0.7500    -2.5000 nb         1 6H4      -0.839000
     33 H1          -0.5420    -0.0020    -0.9380 ha         1 6H4       0.149500
     34 H2           1.9370    -0.0010     3.3360 ha         1 6H4       0.139000
     35 H3           3.1660    -0.0040     1.2010 ha         1 6H4       0.149500
     36 H4           5.3270     2.4460     0.5620 h4         1 6H4       0.045100
     37 H5          -1.4560     3.1580     6.3970 h1         1 6H4       0.034033
     38 H6          -0.2510     2.5310     5.2640 h1         1 6H4       0.034033
     39 H7          -0.0330     2.2990     7.0040 h1         1 6H4       0.034033
     40 H9           0.1100    -0.0250     6.8980 h1         1 6H4       0.063700
     41 H10         -1.1340    -0.9840     6.0770 h1         1 6H4       0.063700
     42 H11          0.8130     0.9310     4.7400 h1         1 6H4       0.046950
     43 H12          0.8910    -0.8390     4.6840 h1         1 6H4       0.046950
     44 H13         -3.0790     1.9330     5.0520 h1         1 6H4       0.063700
     45 H14         -3.0020     0.1630     4.9960 h1         1 6H4       0.063700
     46 H15         -1.0560     2.0760     3.6590 h1         1 6H4       0.046950
     47 H16         -2.3000     1.1160     2.8390 h1         1 6H4       0.046950
     48 H17         -1.7730     0.0080     1.1970 ha         1 6H4       0.139000
     49 H18          1.7450    -0.5290    -1.9900 hn         1 6H4       0.472800
     50 H19          6.1680    -0.9070    -4.8460 ha         1 6H4       0.144000
     51 H20          5.0190    -1.9080    -6.7820 ha         1 6H4       0.135000
     52 H21          3.2340    -0.6670    -7.9400 ha         1 6H4       0.137000
     53 H22          2.5840     1.5790    -7.1630 ha         1 6H4       0.165000
     54 H23          4.3420     3.5110    -4.7760 hn         1 6H4       0.333500
     55 H24          2.7630     5.3640    -4.5430 ha         1 6H4       0.129000
     56 H26          0.4680     6.0890    -4.7190 ha         1 6H4       0.131000
     57 H27         -0.0280     4.3760    -5.3030 ha         1 6H4       0.131000
     58 C01         -0.7600     2.3500     6.2030 c3         1 6H4       0.141100
@<TRIPOS>BOND
     1    58     9 1   
     2    12     9 1   
     3    12    13 1   
     4     9    10 1   
     5    13    14 1   
     6    10    11 1   
     7    11    14 1   
     8    14    15 1   
     9    25    24 ar  
    10    25    26 ar  
    11    15    16 ar  
    12    15     2 ar  
    13    24    23 ar  
    14    16     1 ar  
    15    31    28 2   
    16    29    28 1   
    17    29    30 2   
    18    28    27 1   
    19     2     3 ar  
    20    27    26 1   
    21     1     4 ar  
    22    26    21 ar  
    23    23    22 ar  
    24     3     4 ar  
    25     4    17 1   
    26    21    22 ar  
    27    21    20 1   
    28    17     5 1   
    29    32     5 ar  
    30    32     8 ar  
    31     5    18 ar  
    32    20     8 1   
    33     8     7 ar  
    34    18     6 ar  
    35     7     6 ar  
    36     7    19 1   
    37     1    33 1   
    38     2    34 1   
    39     3    35 1   
    40     6    36 1   
    41    58    37 1   
    42    58    38 1   
    43    58    39 1   
    44    10    40 1   
    45    10    41 1   
    46    11    42 1   
    47    11    43 1   
    48    12    44 1   
    49    12    45 1   
    50    13    46 1   
    51    13    47 1   
    52    16    48 1   
    53    17    49 1   
    54    22    50 1   
    55    23    51 1   
    56    24    52 1   
    57    25    53 1   
    58    27    54 1   
    59    29    55 1   
    60    30    56 1   
    61    30    57 1   
@<TRIPOS>SUBSTRUCTURE
     1 6H4         1 TEMP              0 ****  ****    0 ROOT
