@<TRIPOS>MOLECULE
6H4
   58    61     1     0     0
SMALL
bcc


@<TRIPOS>ATOM
      1 C10          0.0000     0.0000     0.0000 ca         1 6H4      -0.089000
      2 C11          1.3940    -0.0010     2.3980 ca         1 6H4      -0.131000
      3 C12          2.0830     0.0000     1.2020 ca         1 6H4      -0.089000
      4 C13          1.3880     0.0000     0.0000 ca         1 6H4      -0.039400
      5 C15          3.2810     0.6980    -1.3240 ca         1 6H4       0.736900
      6 C17          4.9240     1.9620    -0.3200 ca         1 6H4       0.520200
      7 C18          5.5900     2.0450    -1.5290 ca         1 6H4      -0.389200
      8 C20          5.0380     1.4040    -2.6380 ca         1 6H4       0.690600
      9 N02         -1.4940     1.0810     6.1250 n3         1 6H4      -0.542600
     10 C03         -0.5690    -0.0600     6.0550 c3         1 6H4       0.156300
     11 C04          0.2310     0.0170     4.7520 c3         1 6H4       0.090800
     12 C05         -2.4200     1.0760     4.9840 c3         1 6H4       0.156300
     13 C06         -1.6200     1.1520     3.6820 c3         1 6H4       0.090800
     14 N07         -0.6940     0.0120     3.6110 nh         1 6H4      -0.353000
     15 C08          0.0050     0.0090     2.3990 ca         1 6H4       0.008600
     16 C09         -0.6900     0.0040     1.1960 ca         1 6H4      -0.131000
     17 N14          2.0880     0.0010    -1.2140 nu         1 6H4      -0.267300
     18 N16          3.7860     1.2890    -0.2530 nb         1 6H4      -0.713000
     19 Cl19         7.0840     2.9190    -1.6620 cl         1 6H4       0.015600
     20 O21          5.6570     1.4580    -3.8420 os         1 6H4      -0.327400
     21 C22          5.0240     0.9050    -4.9110 ca         1 6H4       0.076100
     22 C23          5.3820    -0.3590    -5.3520 ca         1 6H4      -0.085000
     23 C24          4.7380    -0.9200    -6.4380 ca         1 6H4      -0.105000
     24 C25          3.7350    -0.2240    -7.0880 ca         1 6H4      -0.081000
     25 C26          3.3710     1.0360    -6.6540 ca         1 6H4      -0.094000
     26 C27          4.0100     1.6050    -5.5610 ca         1 6H4      -0.088400
     27 N28          3.6440     2.8820    -5.1210 ns         1 6H4      -0.023100
     28 C29          2.3630     3.2870    -5.2180 c          1 6H4       0.570300
     29 C30          2.0000     4.6710    -4.8750 ce         1 6H4      -0.248200
     30 C31          0.7350     5.0700    -4.9720 c2         1 6H4      -0.050000
     31 O32          1.5050     2.5080    -5.5910 o          1 6H4      -0.641100
     32 N33          3.8910     0.7500    -2.5000 nb         1 6H4      -0.742000
     33 H1          -0.5420    -0.0020    -0.9380 ha         1 6H4       0.125000
     34 H2           1.9370    -0.0010     3.3360 ha         1 6H4       0.118500
     35 H3           3.1660    -0.0040     1.2010 ha         1 6H4       0.125000
     36 H4           5.3270     2.4460     0.5620 h4         1 6H4      -0.007900
     37 H5          -1.4570     3.1590     6.3910 h1         1 6H4       0.005367
     38 H6          -0.2450     2.5270     5.2660 h1         1 6H4       0.005367
     39 H7          -0.0380     2.3010     7.0090 h1         1 6H4       0.005367
     40 H9          -1.1340    -0.9840     6.0770 h1         1 6H4       0.029950
     41 H10          0.1100    -0.0250     6.8980 h1         1 6H4       0.029950
     42 H11          0.8910    -0.8390     4.6840 h1         1 6H4       0.027200
     43 H12          0.8130     0.9310     4.7400 h1         1 6H4       0.027200
     44 H13         -3.0790     1.9330     5.0520 h1         1 6H4       0.029950
     45 H14         -3.0020     0.1630     4.9960 h1         1 6H4       0.029950
     46 H15         -1.0560     2.0760     3.6590 h1         1 6H4       0.027200
     47 H16         -2.3000     1.1160     2.8390 h1         1 6H4       0.027200
     48 H17         -1.7730     0.0080     1.1970 ha         1 6H4       0.118500
     49 H18          1.7450    -0.5290    -1.9900 hn         1 6H4       0.298800
     50 H19          6.1680    -0.9070    -4.8460 ha         1 6H4       0.113000
     51 H20          5.0190    -1.9080    -6.7820 ha         1 6H4       0.105000
     52 H21          3.2340    -0.6670    -7.9400 ha         1 6H4       0.105000
     53 H22          2.5840     1.5790    -7.1630 ha         1 6H4       0.141000
     54 H23          4.3420     3.5110    -4.7760 hn         1 6H4       0.174500
     55 H24          2.7630     5.3640    -4.5430 ha         1 6H4       0.106000
     56 H26         -0.0280     4.3760    -5.3030 ha         1 6H4       0.092500
     57 H27          0.4680     6.0890    -4.7190 ha         1 6H4       0.092500
     58 C01         -0.7600     2.3500     6.2030 c3         1 6H4       0.167100
@<TRIPOS>BOND
     1     1     4 ar  
     2     1    16 ar  
     3     1    33 1   
     4     2     3 ar  
     5     2    15 ar  
     6     2    34 1   
     7     3     4 ar  
     8     3    35 1   
     9     4    17 1   
    10     5    17 1   
    11     5    18 ar  
    12     5    32 ar  
    13     6     7 ar  
    14     6    18 ar  
    15     6    36 1   
    16     7     8 ar  
    17     7    19 1   
    18     8    20 1   
    19     8    32 ar  
    20     9    10 1   
    21     9    12 1   
    22     9    58 1   
    23    10    11 1   
    24    10    40 1   
    25    10    41 1   
    26    11    14 1   
    27    11    42 1   
    28    11    43 1   
    29    12    13 1   
    30    12    44 1   
    31    12    45 1   
    32    13    14 1   
    33    13    46 1   
    34    13    47 1   
    35    14    15 1   
    36    15    16 ar  
    37    16    48 1   
    38    17    49 1   
    39    20    21 1   
    40    21    22 ar  
    41    21    26 ar  
    42    22    23 ar  
    43    22    50 1   
    44    23    24 ar  
    45    23    51 1   
    46    24    25 ar  
    47    24    52 1   
    48    25    26 ar  
    49    25    53 1   
    50    26    27 1   
    51    27    28 1   
    52    27    54 1   
    53    28    29 1   
    54    28    31 2   
    55    29    30 2   
    56    29    55 1   
    57    30    56 1   
    58    30    57 1   
    59    37    58 1   
    60    38    58 1   
    61    39    58 1   
@<TRIPOS>SUBSTRUCTURE
     1 6H4         1 TEMP              0 ****  ****    0 ROOT
