@<TRIPOS>MOLECULE
6H6
   23    24     1     0     0
SMALL
bcc


@<TRIPOS>ATOM
      1 O            0.0000     0.0000     0.0000 o          1 6H6      -0.897300
      2 N1           1.6980     0.0030    -3.7370 n          1 6H6       0.023000
      3 C2           2.0970    -1.0830    -4.4280 c          1 6H6       0.744600
      4 O2           2.7340    -0.6950    -5.5440 os         1 6H6      -0.263200
      5 C3           2.7580     0.6600    -5.5940 ca         1 6H6       0.044100
      6 C4           3.2770     1.5630    -6.5080 ca         1 6H6      -0.081000
      7 C5           3.1460     2.9210    -6.2850 ca         1 6H6      -0.120000
      8 C6           2.4990     3.3840    -5.1540 ca         1 6H6      -0.104000
      9 C7           1.9770     2.4910    -4.2380 ca         1 6H6      -0.078000
     10 C8           2.1050     1.1280    -4.4540 ca         1 6H6      -0.144400
     11 C9           0.9650     0.0020    -2.4680 c3         1 6H6       0.061000
     12 C10          1.9610     0.0020    -1.3050 c3         1 6H6      -0.158400
     13 C11          1.2080     0.0000     0.0000 c          1 6H6       0.985600
     14 OXT          1.8800     0.0000     1.1620 o          1 6H6      -0.897300
     15 H4           3.7850     1.2060    -7.3950 ha         1 6H6       0.103000
     16 H5           3.5540     3.6260    -7.0000 ha         1 6H6       0.098000
     17 H6           2.4000     4.4500    -4.9870 ha         1 6H6       0.101000
     18 H7           1.4700     2.8550    -3.3520 ha         1 6H6       0.123000
     19 H9           0.3420     0.8860    -2.4100 h1         1 6H6       0.046200
     20 H9A          0.3440    -0.8830    -2.4110 h1         1 6H6       0.046200
     21 H10          2.5820     0.8870    -1.3620 hc         1 6H6       0.017200
     22 H10A         2.5840    -0.8820    -1.3630 hc         1 6H6       0.017200
     23 O1           1.9080    -2.2370    -4.0930 o          1 6H6      -0.667500
@<TRIPOS>BOND
     1     1    13 1   
     2     2     3 1   
     3     2    10 1   
     4     2    11 1   
     5     3     4 1   
     6     3    23 2   
     7     4     5 1   
     8     5     6 ar  
     9     5    10 ar  
    10     6     7 ar  
    11     6    15 1   
    12     7     8 ar  
    13     7    16 1   
    14     8     9 ar  
    15     8    17 1   
    16     9    10 ar  
    17     9    18 1   
    18    11    12 1   
    19    11    19 1   
    20    11    20 1   
    21    12    13 1   
    22    12    21 1   
    23    12    22 1   
    24    13    14 1   
@<TRIPOS>SUBSTRUCTURE
     1 6H6         1 TEMP              0 ****  ****    0 ROOT
