@<TRIPOS>MOLECULE
molecule
   28    29     1     0     0
SMALL
bcc


@<TRIPOS>ATOM
      1 C2           0.0000     0.0000     0.0000 ca         1 6H8      -0.082200
      2 C4           2.0740     0.0000     1.2030 ca         1 6H8       0.092600
      3 C5           4.1650    -0.7350     0.2690 c2         1 6H8       0.660100
      4 C6           1.3790     0.0010     2.4100 ca         1 6H8      -0.143000
      5 C1          -2.1800    -0.0080    -0.3900 cc         1 6H8       0.705700
      6 C3           1.3870     0.0000     0.0000 ca         1 6H8      -0.170000
      7 C8          -0.7030     0.0010     1.2150 ca         1 6H8       0.152400
      8 N4           3.5190    -1.5170    -0.5500 n2         1 6H8      -0.823100
      9 N3           5.5350    -0.6440     0.1960 nz         1 6H8      -0.741600
     10 N2           3.4750    -0.0000     1.2060 nu         1 6H8      -0.756600
     11 C7           0.0020     0.0020     2.4210 ca         1 6H8      -0.051000
     12 N1          -0.9580    -0.0060    -1.0010 na         1 6H8      -0.295300
     13 N5          -2.0290     0.0010     0.9100 nd         1 6H8      -0.660100
     14 N           -3.3950    -0.0140    -1.0470 nu         1 6H8      -0.864200
     15 C           -3.4350    -0.0190    -2.5110 c3         1 6H8       0.218100
     16 H1           1.9250     0.0010     3.3460 ha         1 6H8       0.143000
     17 H2           1.9300    -0.0010    -0.9370 ha         1 6H8       0.131000
     18 H3           2.5220    -1.5850    -0.4990 hn         1 6H8       0.498400
     19 H4           5.9340    -0.9080     1.0750 hn         1 6H8       0.477133
     20 H5           5.7960     0.2980    -0.0190 hn         1 6H8       0.477133
     21 H6           3.9750     0.5470     1.8790 hn         1 6H8       0.451800
     22 H7          -0.5330     0.0030     3.3630 ha         1 6H8       0.168000
     23 H8          -0.7870    -0.0110    -1.9870 hn         1 6H8       0.310700
     24 H10         -4.2470    -0.0310    -0.5230 hn         1 6H8       0.484800
     25 H11         -3.1190    -0.9880    -2.8780 h1         1 6H8       0.046367
     26 H12         -4.4460     0.1810    -2.8450 h1         1 6H8       0.046367
     27 H13         -2.7710     0.7470    -2.8930 h1         1 6H8       0.046367
     28 H33          5.8720    -1.2480    -0.5280 hn         1 6H8       0.477133
@<TRIPOS>BOND
     1    15    14 1   
     2    14     5 1   
     3     5    12 1   
     4     5    13 2   
     5    12     1 1   
     6    13     7 1   
     7     1     7 ar  
     8     1     6 ar  
     9     7    11 ar  
    10     6     2 ar  
    11    11     4 ar  
    12     2     4 ar  
    13     2    10 1   
    14    10     3 1   
    15     3     8 2   
    16     3     9 1   
    17     4    16 1   
    18     6    17 1   
    19     8    18 1   
    20     9    19 1   
    21     9    20 1   
    22    10    21 1   
    23    11    22 1   
    24    12    23 1   
    25    14    24 1   
    26    15    25 1   
    27    15    26 1   
    28    15    27 1   
    29    28     9 1   
@<TRIPOS>SUBSTRUCTURE
     1 6H8         1 TEMP              0 ****  ****    0 ROOT
