@<TRIPOS>MOLECULE
6H8
   28    29     1     0     0
SMALL
bcc


@<TRIPOS>ATOM
      1 C2           0.0000     0.0000     0.0000 ca         1 6H8      -0.277200
      2 C4           2.0740     0.0000     1.2030 ca         1 6H8      -0.097400
      3 C5           4.1650    -0.7350     0.2690 c2         1 6H8       0.224100
      4 C6           1.3790     0.0010     2.4100 ca         1 6H8      -0.108000
      5 C1          -2.1800    -0.0080    -0.3900 cc         1 6H8       0.366700
      6 C3           1.3870     0.0000     0.0000 ca         1 6H8      -0.038000
      7 C8          -0.7030     0.0010     1.2150 ca         1 6H8       0.139400
      8 N4           3.5190    -1.5170    -0.5500 n2         1 6H8      -0.623100
      9 N3           5.5350    -0.6440     0.1960 nz         1 6H8       0.121400
     10 N2           3.4750    -0.0000     1.2060 nu         1 6H8      -0.175600
     11 C7           0.0020     0.0020     2.4210 ca         1 6H8      -0.029000
     12 N1          -0.9580    -0.0060    -1.0010 na         1 6H8       0.220700
     13 N5          -2.0290     0.0010     0.9100 nd         1 6H8      -0.597100
     14 N           -3.3950    -0.0140    -1.0470 nu         1 6H8      -0.447200
     15 C           -3.4350    -0.0190    -2.5110 c3         1 6H8       0.191100
     16 H1           1.9250     0.0010     3.3460 ha         1 6H8       0.107000
     17 H2           1.9300    -0.0010    -0.9370 ha         1 6H8       0.108000
     18 H3           4.0200    -2.0520    -1.2320 hn         1 6H8       0.342400
     19 H4           5.7960     0.2980    -0.0190 hn         1 6H8       0.225133
     20 H5           5.9340    -0.9090     1.0750 hn         1 6H8       0.225133
     21 H6           3.9740     0.5710     1.8590 hn         1 6H8       0.280800
     22 H7          -0.5330     0.0030     3.3630 ha         1 6H8       0.126000
     23 H8          -0.7870    -0.0110    -1.9870 hn         1 6H8       0.136700
     24 H10         -4.2470    -0.0220    -0.5230 hn         1 6H8       0.320800
     25 H11         -3.0480     0.9210    -2.8860 h1         1 6H8       0.009700
     26 H12         -4.4580    -0.1460    -2.8440 h1         1 6H8       0.009700
     27 H13         -2.8290    -0.8340    -2.8870 h1         1 6H8       0.009700
     28 H33          5.8750    -1.2730    -0.5050 hn         1 6H8       0.225133
@<TRIPOS>BOND
     1     1     6 ar  
     2     1     7 ar  
     3     1    12 1   
     4     2     4 ar  
     5     2     6 ar  
     6     2    10 1   
     7     3     8 2   
     8     3     9 1   
     9     3    10 1   
    10     4    11 ar  
    11     4    16 1   
    12     5    12 1   
    13     5    13 2   
    14     5    14 1   
    15     6    17 1   
    16     7    11 ar  
    17     7    13 1   
    18     8    18 1   
    19     9    19 1   
    20     9    20 1   
    21     9    28 1   
    22    10    21 1   
    23    11    22 1   
    24    12    23 1   
    25    14    15 1   
    26    14    24 1   
    27    15    25 1   
    28    15    26 1   
    29    15    27 1   
@<TRIPOS>SUBSTRUCTURE
     1 6H8         1 TEMP              0 ****  ****    0 ROOT
