@<TRIPOS>MOLECULE
6H9
   27    28     1     0     0
SMALL
bcc


@<TRIPOS>ATOM
      1 C1           0.0000     0.0000     0.0000 cc         1 6H9       0.358700
      2 C2           1.7770     0.0000     1.3190 ca         1 6H9      -0.249200
      3 C3           3.0220    -0.0000     1.9370 ca         1 6H9      -0.053000
      4 C4           3.1120     0.0010     3.2990 ca         1 6H9      -0.106000
      5 C5           1.9540     0.0000     4.0870 ca         1 6H9      -0.220600
      6 C6           2.0650    -0.0010     5.5590 c          1 6H9       0.656700
      7 O            1.0610    -0.0010     6.2440 o          1 6H9      -0.596100
      8 N2           3.2790     0.0000     6.1440 ns         1 6H9      -0.395300
      9 N3           3.3810     0.0000     7.5050 nz         1 6H9       0.287400
     10 C7           0.6980     0.0000     3.4850 ca         1 6H9       0.064000
     11 C8           0.6040    -0.0000     2.0950 ca         1 6H9       0.095400
     12 N1           1.3650     0.0000     0.0000 na         1 6H9       0.240700
     13 N4          -0.4470    -0.0000     1.2310 nd         1 6H9      -0.587100
     14 N           -0.7910     0.0050    -1.1290 nu         1 6H9      -0.443200
     15 C           -0.1740     0.0120    -2.4570 c3         1 6H9       0.189100
     16 H1           3.9230     0.0000     1.3360 ha         1 6H9       0.111000
     17 H2           4.0860     0.0010     3.7740 ha         1 6H9       0.083000
     18 H3           4.1060     0.0010     5.5800 hn         1 6H9       0.277500
     19 H4           4.3470     0.0000     7.7680 hn         1 6H9       0.217800
     20 H5           2.9360    -0.8170     7.8730 hn         1 6H9       0.217800
     21 H6          -0.1990    -0.0000     4.0930 ha         1 6H9       0.136000
     22 H7           1.9580     0.0000    -0.8060 hn         1 6H9       0.141700
     23 H9          -1.7880     0.0040    -1.0410 hn         1 6H9       0.321800
     24 H10          0.4420     0.8970    -2.5640 h1         1 6H9       0.012033
     25 H11         -0.9470     0.0160    -3.2150 h1         1 6H9       0.012033
     26 H12          0.4410    -0.8720    -2.5740 h1         1 6H9       0.012033
     27 H33          2.9000     0.7950     7.8760 hn         1 6H9       0.217800
@<TRIPOS>BOND
     1     1    12 1   
     2     1    13 2   
     3     1    14 1   
     4     2     3 ar  
     5     2    11 ar  
     6     2    12 1   
     7     3     4 ar  
     8     3    16 1   
     9     4     5 ar  
    10     4    17 1   
    11     5     6 1   
    12     5    10 ar  
    13     6     7 2   
    14     6     8 1   
    15     8     9 1   
    16     8    18 1   
    17     9    19 1   
    18     9    20 1   
    19     9    27 1   
    20    10    11 ar  
    21    10    21 1   
    22    11    13 1   
    23    12    22 1   
    24    14    15 1   
    25    14    23 1   
    26    15    24 1   
    27    15    25 1   
    28    15    26 1   
@<TRIPOS>SUBSTRUCTURE
     1 6H9         1 TEMP              0 ****  ****    0 ROOT
