@<TRIPOS>MOLECULE
6HD
   25    26     1     0     0
SMALL
bcc


@<TRIPOS>ATOM
      1 O            0.0000     0.0000     0.0000 o          1 6HD      -0.446100
      2 C6           1.2150     0.0000     0.0000 c          1 6HD       0.356700
      3 N2           1.8900     0.0000     1.1680 nz         1 6HD       0.203600
      4 C5           1.9540    -0.0060    -1.2780 ca         1 6HD      -0.213600
      5 C4           3.3550    -0.0060    -1.2760 ca         1 6HD      -0.166000
      6 C3           4.0470    -0.0120    -2.4530 ca         1 6HD      -0.045000
      7 C7           1.2560    -0.0180    -2.4840 ca         1 6HD       0.076000
      8 C8           1.9600    -0.0230    -3.6850 ca         1 6HD       0.085400
      9 C2           3.3670    -0.0170    -3.6640 ca         1 6HD      -0.252200
     10 N1           3.7700    -0.0240    -4.9860 na         1 6HD       0.249700
     11 N3           1.5800    -0.0340    -4.9910 nc         1 6HD      -0.582100
     12 C1           2.6430    -0.0350    -5.7560 cd         1 6HD       0.363700
     13 N            2.6240    -0.0440    -7.1350 nu         1 6HD      -0.435200
     14 C            3.8840    -0.0440    -7.8840 c3         1 6HD       0.187100
     15 H1           1.2390     0.0010     1.9280 hn         1 6HD       0.243133
     16 H2           2.4640    -0.8180     1.2210 hn         1 6HD       0.243133
     17 H3           4.1160    -0.0000    -0.5060 ha         1 6HD       0.115000
     18 H4           5.1290    -0.0110    -2.5020 ha         1 6HD       0.115000
     19 H5           0.1870    -0.0230    -2.6590 ha         1 6HD       0.146000
     20 H6           4.7140    -0.0220    -5.3180 hn         1 6HD       0.144700
     21 H8           1.7510    -0.0350    -7.6240 hn         1 6HD       0.324800
     22 H9           3.6720    -0.0520    -8.9460 h1         1 6HD       0.014367
     23 H10          4.4580    -0.9250    -7.6230 h1         1 6HD       0.014367
     24 H11          4.4520     0.8440    -7.6360 h1         1 6HD       0.014367
     25 H23          2.4580     0.8220     1.2240 hn         1 6HD       0.243133
@<TRIPOS>BOND
     1     1     2 2   
     2     2     3 1   
     3     2     4 1   
     4     3    15 1   
     5     3    16 1   
     6     3    25 1   
     7     4     5 ar  
     8     4     7 ar  
     9     5     6 ar  
    10     5    17 1   
    11     6     9 ar  
    12     6    18 1   
    13     7     8 ar  
    14     7    19 1   
    15     8     9 ar  
    16     8    11 1   
    17     9    10 1   
    18    10    12 1   
    19    10    20 1   
    20    11    12 2   
    21    12    13 1   
    22    13    14 1   
    23    13    21 1   
    24    14    22 1   
    25    14    23 1   
    26    14    24 1   
@<TRIPOS>SUBSTRUCTURE
     1 6HD         1 TEMP              0 ****  ****    0 ROOT
