@<TRIPOS>MOLECULE
molecule
   25    26     1     0     0
SMALL
bcc


@<TRIPOS>ATOM
      1 O            0.0000     0.0000     0.0000 o          1 6HD      -0.429100
      2 C6           1.2150     0.0000     0.0000 c          1 6HD       0.509700
      3 N2           1.8900     0.0000     1.1680 nz         1 6HD      -0.676400
      4 C5           1.9540    -0.0060    -1.2780 ca         1 6HD      -0.196600
      5 C4           3.3550    -0.0060    -1.2760 ca         1 6HD      -0.170000
      6 C3           4.0470    -0.0120    -2.4530 ca         1 6HD      -0.099000
      7 C7           1.2560    -0.0180    -2.4840 ca         1 6HD       0.020000
      8 C8           1.9600    -0.0230    -3.6850 ca         1 6HD       0.119400
      9 C2           3.3670    -0.0170    -3.6640 ca         1 6HD      -0.064200
     10 N1           3.7700    -0.0240    -4.9860 na         1 6HD      -0.279300
     11 N3           1.5800    -0.0340    -4.9910 nc         1 6HD      -0.655100
     12 C1           2.6430    -0.0350    -5.7560 cd         1 6HD       0.707700
     13 N            2.6240    -0.0440    -7.1350 nu         1 6HD      -0.859200
     14 C            3.8840    -0.0440    -7.8840 c3         1 6HD       0.215100
     15 H1           1.2390     0.0010     1.9280 hn         1 6HD       0.474800
     16 H2           2.4640    -0.8180     1.2210 hn         1 6HD       0.474800
     17 H3           4.1160    -0.0000    -0.5060 ha         1 6HD       0.138000
     18 H4           5.1290    -0.0110    -2.5020 ha         1 6HD       0.149000
     19 H5           0.1870    -0.0230    -2.6590 ha         1 6HD       0.188000
     20 H6           4.7140    -0.0220    -5.3180 hn         1 6HD       0.319700
     21 H8           1.7510    -0.0350    -7.6240 hn         1 6HD       0.487800
     22 H9           3.6720    -0.0520    -8.9460 h1         1 6HD       0.050033
     23 H10          4.4580    -0.9250    -7.6230 h1         1 6HD       0.050033
     24 H11          4.4520     0.8440    -7.6360 h1         1 6HD       0.050033
     25 H23          2.4580     0.8220     1.2240 hn         1 6HD       0.474800
@<TRIPOS>BOND
     1    14    13 1   
     2    13    12 1   
     3    12    10 1   
     4    12    11 2   
     5    10     9 1   
     6    11     8 1   
     7     9     8 ar  
     8     9     6 ar  
     9     8     7 ar  
    10     6     5 ar  
    11     7     4 ar  
    12     5     4 ar  
    13     4     2 1   
    14     2     1 2   
    15     2     3 1   
    16     3    15 1   
    17     3    16 1   
    18     5    17 1   
    19     6    18 1   
    20     7    19 1   
    21    10    20 1   
    22    13    21 1   
    23    14    22 1   
    24    14    23 1   
    25    14    24 1   
    26    25     3 1   
@<TRIPOS>SUBSTRUCTURE
     1 6HD         1 TEMP              0 ****  ****    0 ROOT
