@<TRIPOS>MOLECULE
6HF
   62    66     1     0     0
SMALL
bcc


@<TRIPOS>ATOM
      1 C01          0.0000     0.0000     0.0000 c3         1 6HF       0.167100
      2 N02          1.4690     0.0000     0.0000 n3         1 6HF      -0.543600
      3 C03          1.9960     0.0000     1.3720 c3         1 6HF       0.155800
      4 C04          1.5990     1.3050     2.0680 c3         1 6HF       0.091300
      5 C05          1.9950     1.1400    -0.7640 c3         1 6HF       0.155800
      6 C06          1.5980     2.4430    -0.0690 c3         1 6HF       0.091300
      7 N07          2.1260     2.4440     1.3030 nh         1 6HF      -0.354000
      8 C08          1.8430     3.6540     1.9490 ca         1 6HF       0.000600
      9 C09          2.2580     4.8540     1.3860 ca         1 6HF      -0.130000
     10 C10          1.9800     6.0480     2.0220 ca         1 6HF      -0.100000
     11 C11          1.1440     3.6550     3.1480 ca         1 6HF      -0.130000
     12 C12          0.8660     4.8480     3.7850 ca         1 6HF      -0.100000
     13 C13          1.2850     6.0480     3.2240 ca         1 6HF      -0.020400
     14 N14          1.0030     7.2580     3.8700 nu         1 6HF      -0.289300
     15 C15          1.9150     8.3000     3.8190 ca         1 6HF       0.751900
     16 N16          2.9940     8.1650     3.0660 nb         1 6HF      -0.730000
     17 C17          3.8950     9.1420     2.9890 ca         1 6HF       0.320800
     18 C18          3.6740    10.3210     3.7270 ca         1 6HF      -0.422400
     19 C19          4.8130    11.1960     3.4480 cc         1 6HF      -0.089200
     20 C20          5.6150    10.5310     2.6010 cd         1 6HF      -0.303100
     21 N21          5.0760     9.3010     2.3190 na         1 6HF       0.269900
     22 C22          2.5180    10.4200     4.5130 ca         1 6HF       0.750600
     23 O23          2.2670    11.5360     5.2380 os         1 6HF      -0.329400
     24 C24          1.1920    11.5280     6.0700 ca         1 6HF       0.098100
     25 C25          1.3160    11.0290     7.3590 ca         1 6HF      -0.087000
     26 C26          0.2250    11.0200     8.2040 ca         1 6HF      -0.106500
     27 C27         -0.9980    11.5110     7.7640 ca         1 6HF      -0.091400
     28 N28         -2.1070    11.4970     8.6190 ns         1 6HF      -0.030100
     29 C29         -1.9380    11.6760     9.9450 c          1 6HF       0.570300
     30 C30         -3.0830    11.5350    10.8570 ce         1 6HF      -0.250200
     31 C31         -2.9160    11.7110    12.1650 c2         1 6HF      -0.049000
     32 O32         -0.8390    11.9510    10.3860 o          1 6HF      -0.638100
     33 C33         -1.1220    12.0100     6.4750 ca         1 6HF      -0.106500
     34 C34         -0.0280    12.0230     5.6320 ca         1 6HF      -0.087000
     35 N35          1.6710     9.3980     4.5250 nb         1 6HF      -0.782000
     36 H012        -0.3610     0.9400     0.3990 h1         1 6HF       0.005033
     37 H011        -0.3610    -0.8160     0.6140 h1         1 6HF       0.005033
     38 H013        -0.3610    -0.1240    -1.0140 h1         1 6HF       0.005033
     39 H032         3.0760    -0.0790     1.3420 h1         1 6HF       0.029950
     40 H031         1.5820    -0.8400     1.9170 h1         1 6HF       0.029950
     41 H042         0.5190     1.3730     2.1170 h1         1 6HF       0.026450
     42 H041         2.0140     1.3200     3.0680 h1         1 6HF       0.026450
     43 H051         3.0750     1.0720    -0.8130 h1         1 6HF       0.029950
     44 H052         1.5800     1.1250    -1.7640 h1         1 6HF       0.029950
     45 H062         2.0120     3.2820    -0.6140 h1         1 6HF       0.026450
     46 H061         0.5180     2.5210    -0.0390 h1         1 6HF       0.026450
     47 H091         2.8000     4.8540     0.4480 ha         1 6HF       0.116000
     48 H101         2.3050     6.9840     1.5840 ha         1 6HF       0.125000
     49 H111         0.8170     2.7190     3.5850 ha         1 6HF       0.116000
     50 H121         0.3220     4.8480     4.7220 ha         1 6HF       0.125000
     51 H141         0.1320     7.3790     4.3480 hn         1 6HF       0.291800
     52 H191         4.9780    12.1890     3.8480 ha         1 6HF       0.133000
     53 H201         6.5480    10.9090     2.2000 h4         1 6HF       0.145000
     54 H211         5.4870     8.6200     1.7110 hn         1 6HF       0.119700
     55 H251         2.2690    10.6460     7.7020 ha         1 6HF       0.114000
     56 H261         0.3220    10.6300     9.2100 ha         1 6HF       0.123000
     57 H281        -3.0230    11.3370     8.2480 hn         1 6HF       0.167500
     58 H301        -4.0620    11.2890    10.4640 ha         1 6HF       0.104000
     59 H312        -1.9370    11.9580    12.5580 ha         1 6HF       0.092500
     60 H311        -3.7590    11.6080    12.8370 ha         1 6HF       0.092500
     61 H331        -2.0750    12.3950     6.1320 ha         1 6HF       0.123000
     62 H341        -0.1240    12.4130     4.6260 ha         1 6HF       0.114000
@<TRIPOS>BOND
     1     1     2 1   
     2     1    36 1   
     3     1    37 1   
     4     1    38 1   
     5     2     3 1   
     6     2     5 1   
     7     3     4 1   
     8     3    39 1   
     9     3    40 1   
    10     4     7 1   
    11     4    41 1   
    12     4    42 1   
    13     5     6 1   
    14     5    43 1   
    15     5    44 1   
    16     6     7 1   
    17     6    45 1   
    18     6    46 1   
    19     7     8 1   
    20     8     9 ar  
    21     8    11 ar  
    22     9    10 ar  
    23     9    47 1   
    24    10    13 ar  
    25    10    48 1   
    26    11    12 ar  
    27    11    49 1   
    28    12    13 ar  
    29    12    50 1   
    30    13    14 1   
    31    14    15 1   
    32    14    51 1   
    33    15    16 ar  
    34    15    35 ar  
    35    16    17 ar  
    36    17    18 ar  
    37    17    21 1   
    38    18    19 1   
    39    18    22 ar  
    40    19    20 2   
    41    19    52 1   
    42    20    21 1   
    43    20    53 1   
    44    21    54 1   
    45    22    23 1   
    46    22    35 ar  
    47    23    24 1   
    48    24    25 ar  
    49    24    34 ar  
    50    25    26 ar  
    51    25    55 1   
    52    26    27 ar  
    53    26    56 1   
    54    27    28 1   
    55    27    33 ar  
    56    28    29 1   
    57    28    57 1   
    58    29    30 1   
    59    29    32 2   
    60    30    31 2   
    61    30    58 1   
    62    31    59 1   
    63    31    60 1   
    64    33    34 ar  
    65    33    61 1   
    66    34    62 1   
@<TRIPOS>SUBSTRUCTURE
     1 6HF         1 TEMP              0 ****  ****    0 ROOT
