@<TRIPOS>MOLECULE
molecule
   67    69     1     0     0
SMALL
bcc


@<TRIPOS>ATOM
      1 N3           0.0000     0.0000     0.0000 nc         1 6HI      -0.657000
      2 C4           1.3550    -1.1670     4.2210 c3         1 6HI      -0.104100
      3 C5           1.3390     0.0000     0.0000 cc         1 6HI       0.342800
      4 C6           0.6250    -0.0030     3.5410 c3         1 6HI       0.016000
      5 C7           3.1920    -0.0010     1.7750 c3         1 6HI      -0.014100
      6 C8           3.7210    -1.4360     1.8010 c3         1 6HI      -0.115400
      7 C10          5.7060    -2.8640     2.3140 c3         1 6HI      -0.126400
      8 C13          1.1820     1.3240     4.0640 c3         1 6HI      -0.104100
      9 C15          4.1620     0.7920    -2.3530 ca         1 6HI      -0.169500
     10 C17         -5.4500    -1.0520    -0.9550 ca         1 6HI      -0.086500
     11 C20         -6.3770    -0.8690    -1.9670 ca         1 6HI      -0.168500
     12 C21          1.8850    -0.7920    -2.3010 ca         1 6HI      -0.090000
     13 C24          2.6980    -0.7880    -3.4160 ca         1 6HI      -0.169500
     14 C26         -5.9520     1.1330    -0.0990 ca         1 6HI      -0.086500
     15 C29         -7.0920     0.3150    -2.0470 ca         1 6HI       0.132900
     16 C23         -6.8790     1.3170    -1.1130 ca         1 6HI      -0.168500
     17 C32         -5.2370    -0.0510    -0.0200 ca         1 6HI      -0.122300
     18 C1          -4.2770    -0.2770     1.1060 c3         1 6HI       0.160300
     19 N2          -2.8960    -0.1610     0.6790 ns         1 6HI      -0.594900
     20 C3          -1.8400    -0.0030     1.6680 c          1 6HI       0.622600
     21 O2          -2.1200     0.0970     2.8470 o          1 6HI      -0.598100
     22 C2          -0.4280    -0.0010     1.2440 cd         1 6HI       0.327000
     23 N4           0.6560    -0.0020     2.0770 na         1 6HI      -0.124900
     24 C12          1.7620     0.0000     1.2990 cd         1 6HI      -0.166900
     25 C27          2.2100     0.0010    -1.2020 ca         1 6HI      -0.106500
     26 C30          3.8360     0.0020    -3.4440 ca         1 6HI       0.128900
     27 F1           4.6100     0.0090    -4.5500 f          1 6HI      -0.144900
     28 C18          3.3550     0.7940    -1.2340 ca         1 6HI      -0.090000
     29 C9           5.1290    -1.4500     2.4020 c3         1 6HI       0.148100
     30 O4           5.0660    -1.0450     3.7710 oh         1 6HI      -0.601800
     31 C11          7.0880    -2.8910     2.9600 c3         1 6HI       0.177100
     32 O3           6.9990    -2.4150     4.2730 oh         1 6HI      -0.622800
     33 C35          7.6170    -4.3240     2.9730 c3         1 6HI      -0.217400
     34 C36          9.1240    -4.3080     3.1930 c          1 6HI       0.902600
     35 O7           9.6590    -3.3500     3.8060 o          1 6HI      -0.854300
     36 O6           9.8300    -5.2640     2.7790 o          1 6HI      -0.854300
     37 H4           1.5240    -1.9570     3.5000 hc         1 6HI       0.051700
     38 H4A          0.7500    -1.5450     5.0360 hc         1 6HI       0.051700
     39 H4B          2.3060    -0.8210     4.6070 hc         1 6HI       0.051700
     40 H6          -0.4340    -0.0620     3.7620 h1         1 6HI       0.108700
     41 H7           3.8070     0.5980     1.1130 hc         1 6HI       0.066200
     42 H7A          3.2270     0.4150     2.7740 hc         1 6HI       0.066200
     43 H8           3.0730    -2.0480     2.4170 hc         1 6HI       0.049200
     44 H8A          3.7410    -1.8320     0.7930 hc         1 6HI       0.049200
     45 H10          5.0520    -3.5550     2.8330 hc         1 6HI       0.044200
     46 H10A         5.7880    -3.1560     1.2740 hc         1 6HI       0.044200
     47 H13          0.4170     1.8380     4.6320 hc         1 6HI       0.051700
     48 H13A         2.0370     1.1310     4.7010 hc         1 6HI       0.051700
     49 H13B         1.4870     1.9420     3.2280 hc         1 6HI       0.051700
     50 H15          5.0530     1.4090    -2.3780 ha         1 6HI       0.143500
     51 H21          0.9850    -1.3950    -2.2900 ha         1 6HI       0.145000
     52 H24          2.4470    -1.4040    -4.2710 ha         1 6HI       0.143500
     53 H26         -5.7860     1.9160     0.6310 ha         1 6HI       0.144500
     54 H23         -7.4380     2.2430    -1.1750 ha         1 6HI       0.145500
     55 H1          -4.4870     0.4220     1.9060 h1         1 6HI       0.052200
     56 H1A         -4.3840    -1.2900     1.4740 h1         1 6HI       0.052200
     57 HN2         -2.6840     0.0810    -0.2690 hn         1 6HI       0.330500
     58 H18          3.5830     1.4530    -0.4040 ha         1 6HI       0.145000
     59 H9           5.7630    -0.7660     1.8520 h1         1 6HI       0.070700
     60 HO4          4.7270    -1.7540     4.2930 ho         1 6HI       0.410000
     61 H11          7.7640    -2.2620     2.3930 h1         1 6HI       0.038700
     62 HO3          7.7640    -1.9010     4.4740 ho         1 6HI       0.430000
     63 H35          7.3950    -4.7990     2.0240 hc         1 6HI       0.034200
     64 H35A         7.1410    -4.8780     3.7730 hc         1 6HI       0.034200
     65 H17         -4.8910    -1.9780    -0.8930 ha         1 6HI       0.144500
     66 F2          -8.0130     0.4910    -3.0370 f          1 6HI      -0.145900
     67 H20         -6.5520    -1.6570    -2.6900 ha         1 6HI       0.145500
@<TRIPOS>BOND
     1     3     1 1
     2     1    22 2
     3     2     4 1
     4     2    37 1
     5     2    38 1
     6     2    39 1
     7    24     3 2
     8    25     3 1
     9     4    23 1
    10     4     8 1
    11     4    40 1
    12     5    24 1
    13     5     6 1
    14     5    41 1
    15     5    42 1
    16    29     6 1
    17     6    43 1
    18     6    44 1
    19    29     7 1
    20     7    31 1
    21     7    45 1
    22     7    46 1
    23     8    47 1
    24     8    48 1
    25     8    49 1
    26     9    28 ar
    27     9    26 ar
    28     9    50 1
    29    11    10 ar
    30    10    17 ar
    31    10    65 1
    32    11    15 ar
    33    11    67 1
    34    25    12 ar
    35    13    12 ar
    36    12    51 1
    37    26    13 ar
    38    13    52 1
    39    17    14 ar
    40    16    14 ar
    41    14    53 1
    42    66    15 1
    43    15    16 ar
    44    16    54 1
    45    17    18 1
    46    19    18 1
    47    18    55 1
    48    18    56 1
    49    19    20 1
    50    19    57 1
    51    22    20 1
    52    20    21 2
    53    23    22 1
    54    24    23 1
    55    28    25 ar
    56    27    26 1
    57    28    58 1
    58    30    29 1
    59    29    59 1
    60    30    60 1
    61    32    31 1
    62    31    33 1
    63    31    61 1
    64    32    62 1
    65    33    34 1
    66    33    63 1
    67    33    64 1
    68    35    34 1
    69    34    36 1
@<TRIPOS>SUBSTRUCTURE
     1 6HI         1 TEMP              0 ****  ****    0 ROOT
