@<TRIPOS>MOLECULE
6HJ
   53    57     1     0     0
SMALL
bcc


@<TRIPOS>ATOM
      1 C4           0.0000     0.0000     0.0000 ca         1 6HJ       0.319800
      2 C5           1.4080     0.0000     0.0000 ca         1 6HJ      -0.510500
      3 C6           2.0780     0.0000     1.2330 ca         1 6HJ       0.623200
      4 N1           1.3520    -0.0000     2.3470 nb         1 6HJ      -0.696000
      5 N3          -0.6400    -0.0010     1.1700 nb         1 6HJ      -0.656000
      6 CBD         -4.7100     4.4120    -2.0790 c2         1 6HJ      -0.052000
      7 CBB         -3.8300     3.4450    -2.3250 ce         1 6HJ      -0.256200
      8 OBC         -5.4170     2.0910    -3.3670 o          1 6HJ      -0.652100
      9 NAW         -3.3930     1.1960    -3.1700 n          1 6HJ      -0.145800
     10 CAX         -2.0380     1.2680    -2.6090 c3         1 6HJ       0.023000
     11 CAV         -3.7810     0.0010    -3.9320 c3         1 6HJ       0.047000
     12 CAU         -3.5040    -1.2400    -3.0770 c3         1 6HJ      -0.037400
     13 CAT         -2.0400    -1.2270    -2.6270 c3         1 6HJ      -0.044400
     14 CAS         -1.7870     0.0130    -1.7660 c3         1 6HJ      -0.043000
     15 NAG         -0.3960     0.0050    -1.3050 na         1 6HJ       0.373200
     16 NAH          0.7300     0.0020    -2.1330 nc         1 6HJ      -0.628100
     17 C2           0.0310    -0.0010     2.3010 ca         1 6HJ       0.677900
     18 NAY          3.4590     0.0010     1.2880 nv         1 6HJ      -0.646500
     19 CAI          1.8210     0.0010    -1.4030 cd         1 6HJ       0.545200
     20 CAJ          3.2140    -0.0010    -1.9080 cd         1 6HJ      -0.177800
     21 CAK          3.7800    -0.9090    -2.9190 ca         1 6HJ      -0.073800
     22 CAO          3.2650    -1.9610    -3.6730 ca         1 6HJ      -0.040000
     23 CAP          4.0710    -2.6240    -4.5550 ca         1 6HJ      -0.128000
     24 CAQ          5.4020    -2.2580    -4.7060 ca         1 6HJ      -0.084000
     25 CAR          5.9310    -1.2210    -3.9700 ca         1 6HJ      -0.103000
     26 CAL          5.1260    -0.5320    -3.0680 ca         1 6HJ      -0.216200
     27 NAM          5.3550     0.5230    -2.2110 na         1 6HJ       0.401600
     28 CAZ          6.6380     1.2130    -2.0550 c3         1 6HJ      -0.008400
     29 CAN          4.2140     0.8340    -1.5300 cc         1 6HJ      -0.230100
     30 H1          -5.7520     4.2760    -2.3420 ha         1 6HJ       0.091500
     31 H2          -4.3850     5.3350    -1.6150 ha         1 6HJ       0.091500
     32 H4          -2.7880     3.5810    -2.0620 ha         1 6HJ       0.114000
     33 H6          -1.9520     2.1480    -1.9840 h1         1 6HJ       0.041700
     34 H7          -1.3150     1.3140    -3.4140 h1         1 6HJ       0.041700
     35 H8          -4.8370     0.0480    -4.1680 h1         1 6HJ       0.038200
     36 H9          -3.2000    -0.0510    -4.8450 h1         1 6HJ       0.038200
     37 H10         -4.1490    -1.2300    -2.2070 hc         1 6HJ       0.025700
     38 H11         -3.6920    -2.1310    -3.6640 hc         1 6HJ       0.025700
     39 H12         -1.8350    -2.1180    -2.0450 hc         1 6HJ       0.032700
     40 H13         -1.3960    -1.2010    -3.4970 hc         1 6HJ       0.032700
     41 H14         -2.4580     0.0080    -0.9160 h1         1 6HJ       0.067700
     42 H15         -0.5210    -0.0010     3.2330 h5         1 6HJ      -0.002900
     43 H16          3.9490     0.8380     1.5340 hn         1 6HJ       0.282300
     44 H17          3.9650    -0.8510     1.1440 hn         1 6HJ       0.282300
     45 H18          2.2280    -2.2530    -3.5600 ha         1 6HJ       0.108000
     46 H19          3.6690    -3.4420    -5.1400 ha         1 6HJ       0.103000
     47 H20          6.0290    -2.7920    -5.4090 ha         1 6HJ       0.101000
     48 H21          6.9700    -0.9410    -4.0950 ha         1 6HJ       0.100000
     49 H22          7.3960     0.5020    -1.7500 h1         1 6HJ       0.019033
     50 H23          6.9230     1.6630    -2.9980 h1         1 6HJ       0.019033
     51 H24          6.5430     1.9860    -1.3010 h1         1 6HJ       0.019033
     52 H25          4.1190     1.6300    -0.8010 h4         1 6HJ       0.146000
     53 CBA         -4.2670     2.2060    -2.9870 c          1 6HJ       0.601300
@<TRIPOS>BOND
     1     1     2 ar  
     2     1     5 ar  
     3     1    15 1   
     4     2     3 ar  
     5     2    19 1   
     6     3     4 ar  
     7     3    18 1   
     8     4    17 ar  
     9     5    17 ar  
    10     6     7 2   
    11     6    30 1   
    12     6    31 1   
    13     7    32 1   
    14     7    53 1   
    15     8    53 2   
    16     9    10 1   
    17     9    11 1   
    18     9    53 1   
    19    10    14 1   
    20    10    33 1   
    21    10    34 1   
    22    11    12 1   
    23    11    35 1   
    24    11    36 1   
    25    12    13 1   
    26    12    37 1   
    27    12    38 1   
    28    13    14 1   
    29    13    39 1   
    30    13    40 1   
    31    14    15 1   
    32    14    41 1   
    33    15    16 1   
    34    16    19 2   
    35    17    42 1   
    36    18    43 1   
    37    18    44 1   
    38    19    20 1   
    39    20    21 1   
    40    20    29 2   
    41    21    22 ar  
    42    21    26 ar  
    43    22    23 ar  
    44    22    45 1   
    45    23    24 ar  
    46    23    46 1   
    47    24    25 ar  
    48    24    47 1   
    49    25    26 ar  
    50    25    48 1   
    51    26    27 1   
    52    27    28 1   
    53    27    29 1   
    54    28    49 1   
    55    28    50 1   
    56    28    51 1   
    57    29    52 1   
@<TRIPOS>SUBSTRUCTURE
     1 6HJ         1 TEMP              0 ****  ****    0 ROOT
