@<TRIPOS>MOLECULE
molecule
   53    57     1     0     0
SMALL
bcc


@<TRIPOS>ATOM
      1 C4           0.0000     0.0000     0.0000 ca         1 6HJ       0.512800
      2 C5           1.4080     0.0000     0.0000 ca         1 6HJ      -0.497500
      3 C6           2.0780     0.0000     1.2330 ca         1 6HJ       0.786200
      4 N1           1.3520    -0.0000     2.3470 nb         1 6HJ      -0.801000
      5 N3          -0.6400    -0.0010     1.1700 nb         1 6HJ      -0.780000
      6 CBD         -4.7100     4.4120    -2.0790 c2         1 6HJ      -0.130000
      7 CBB         -3.8300     3.4450    -2.3250 ce         1 6HJ      -0.254200
      8 OBC         -5.4170     2.0910    -3.3670 o          1 6HJ      -0.615100
      9 NAW         -3.3930     1.1960    -3.1700 n          1 6HJ      -0.488800
     10 CAX         -2.0380     1.2680    -2.6090 c3         1 6HJ       0.088000
     11 CAV         -3.7810     0.0010    -3.9320 c3         1 6HJ       0.104000
     12 CAU         -3.5040    -1.2400    -3.0770 c3         1 6HJ      -0.100400
     13 CAT         -2.0400    -1.2270    -2.6270 c3         1 6HJ      -0.095400
     14 CAS         -1.7870     0.0130    -1.7660 c3         1 6HJ       0.075000
     15 NAG         -0.3960     0.0050    -1.3050 na         1 6HJ      -0.034800
     16 NAH          0.7300     0.0020    -2.1330 nc         1 6HJ      -0.496100
     17 C2           0.0310    -0.0010     2.3010 ca         1 6HJ       0.730900
     18 NAY          3.4590     0.0010     1.2880 nv         1 6HJ      -1.074500
     19 CAI          1.8210     0.0010    -1.4030 cd         1 6HJ       0.496200
     20 CAJ          3.2140    -0.0010    -1.9080 cd         1 6HJ      -0.182800
     21 CAK          3.7800    -0.9090    -2.9190 ca         1 6HJ      -0.079800
     22 CAO          3.2650    -1.9610    -3.6730 ca         1 6HJ      -0.074000
     23 CAP          4.0710    -2.6240    -4.5550 ca         1 6HJ      -0.154000
     24 CAQ          5.4020    -2.2580    -4.7060 ca         1 6HJ      -0.108000
     25 CAR          5.9310    -1.2210    -3.9700 ca         1 6HJ      -0.141000
     26 CAL          5.1260    -0.5320    -3.0680 ca         1 6HJ      -0.041200
     27 NAM          5.3550     0.5230    -2.2110 na         1 6HJ      -0.070400
     28 CAZ          6.6380     1.2130    -2.0550 c3         1 6HJ       0.039600
     29 CAN          4.2140     0.8340    -1.5300 cc         1 6HJ      -0.060100
     30 H1          -4.3850     5.3350    -1.6150 ha         1 6HJ       0.129000
     31 H2          -5.7520     4.2760    -2.3420 ha         1 6HJ       0.129000
     32 H4          -2.7880     3.5810    -2.0620 ha         1 6HJ       0.131000
     33 H6          -1.9520     2.1480    -1.9840 h1         1 6HJ       0.066200
     34 H7          -1.3150     1.3140    -3.4140 h1         1 6HJ       0.066200
     35 H8          -3.2000    -0.0510    -4.8450 h1         1 6HJ       0.065700
     36 H9          -4.8370     0.0480    -4.1680 h1         1 6HJ       0.065700
     37 H10         -4.1490    -1.2300    -2.2070 hc         1 6HJ       0.055700
     38 H11         -3.6920    -2.1310    -3.6640 hc         1 6HJ       0.055700
     39 H12         -1.8350    -2.1180    -2.0450 hc         1 6HJ       0.060200
     40 H13         -1.3960    -1.2010    -3.4970 hc         1 6HJ       0.060200
     41 H14         -2.4580     0.0080    -0.9160 h1         1 6HJ       0.096700
     42 H15         -0.5210    -0.0010     3.2330 h5         1 6HJ       0.062100
     43 H16          3.9650    -0.8510     1.1440 hn         1 6HJ       0.442300
     44 H17          3.9490     0.8380     1.5340 hn         1 6HJ       0.442300
     45 H18          2.2280    -2.2530    -3.5600 ha         1 6HJ       0.139000
     46 H19          3.6690    -3.4420    -5.1400 ha         1 6HJ       0.131000
     47 H20          6.0290    -2.7920    -5.4090 ha         1 6HJ       0.131000
     48 H21          6.9700    -0.9410    -4.0950 ha         1 6HJ       0.126000
     49 H22          7.3960     0.5020    -1.7490 h1         1 6HJ       0.050367
     50 H23          6.9240     1.6620    -2.9990 h1         1 6HJ       0.050367
     51 H24          6.5430     1.9860    -1.3020 h1         1 6HJ       0.050367
     52 H25          4.1190     1.6300    -0.8010 h4         1 6HJ       0.171000
     53 CBA         -4.2670     2.2060    -2.9870 c          1 6HJ       0.670300
@<TRIPOS>BOND
     1    25    24 ar
     2    25    26 ar
     3    28    27 1
     4    24    23 ar
     5    26    27 1
     6    26    21 ar
     7    27    29 1
     8    23    22 ar
     9    21    22 ar
    10    21    20 1
    11    29    20 2
    12    20    19 1
    13    19    16 2
    14    19     2 1
    15    18     3 1
    16    16    15 1
    17     2     3 ar
    18     2     1 ar
    19     3     4 ar
    20    15     1 1
    21    15    14 1
    22    10    14 1
    23    10     9 1
    24     1     5 ar
    25     4    17 ar
    26    14    13 1
    27     9    11 1
    28     9    53 1
    29    13    12 1
    30     7    53 1
    31     7     6 2
    32     5    17 ar
    33    11    12 1
    34    53     8 2
    35     6    30 1
    36     6    31 1
    37     7    32 1
    38    10    33 1
    39    10    34 1
    40    11    35 1
    41    11    36 1
    42    12    37 1
    43    12    38 1
    44    13    39 1
    45    13    40 1
    46    14    41 1
    47    17    42 1
    48    18    43 1
    49    18    44 1
    50    22    45 1
    51    23    46 1
    52    24    47 1
    53    25    48 1
    54    28    49 1
    55    28    50 1
    56    28    51 1
    57    29    52 1
@<TRIPOS>SUBSTRUCTURE
     1 6HJ         1 TEMP              0 ****  ****    0 ROOT
