@<TRIPOS>MOLECULE
6HK
   45    48     1     0     0
SMALL
bcc


@<TRIPOS>ATOM
      1 O2           0.0000     0.0000     0.0000 o          1 6HK      -0.686500
      2 C13          1.2160     0.0000     0.0000 c          1 6HK       0.614100
      3 N2           1.8170     0.0000     1.1790 ns         1 6HK      -0.009100
      4 C14          3.1890     0.0210     1.4240 ca         1 6HK      -0.117400
      5 C6           4.0770    -0.7280     0.6580 ca         1 6HK      -0.013400
      6 C5           5.4310    -0.7270     0.9650 ca         1 6HK      -0.048000
      7 C4           5.9040     0.0420     2.0120 ca         1 6HK      -0.091000
      8 C15          3.6780     0.8030     2.4650 ca         1 6HK      -0.102000
      9 C3           5.0280     0.8120     2.7540 ca         1 6HK      -0.057300
     10 C2           5.5490     1.6650     3.8830 c3         1 6HK      -0.011100
     11 C1           5.5360     0.8670     5.1610 c          1 6HK       0.687100
     12 O3           5.9600     1.4260     6.3060 os         1 6HK      -0.418900
     13 C20          5.9210     0.5990     7.4980 c3         1 6HK       0.270700
     14 O1           5.1460    -0.2770     5.1570 o          1 6HK      -0.576000
     15 C12          1.8840    -0.0040    -1.3040 ca         1 6HK      -0.180600
     16 C7           3.0450    -0.7670    -1.5120 ca         1 6HK       0.041600
     17 N1           3.6310    -1.4470    -0.4580 na         1 6HK      -0.305000
     18 C11          1.3540     0.7510    -2.3590 ca         1 6HK      -0.017000
     19 C10          1.9420     0.7210    -3.5890 ca         1 6HK      -0.159000
     20 C9           3.0760    -0.0670    -3.8130 ca         1 6HK       0.053000
     21 C8           3.6240    -0.8120    -2.7680 ca         1 6HK      -0.083000
     22 C16          3.6920    -0.1110    -5.1550 cc         1 6HK      -0.376600
     23 N4           3.0940     0.2290    -6.3480 na         1 6HK       0.302100
     24 C19          1.7200     0.7070    -6.5290 c3         1 6HK      -0.023400
     25 C18          4.0120     0.0410    -7.3190 cc         1 6HK       0.226400
     26 N3           5.1200    -0.3910    -6.7800 nd         1 6HK      -0.619000
     27 C17          4.9650    -0.4920    -5.4560 cd         1 6HK       0.346200
     28 H9           1.2220    -0.0170     1.9830 hn         1 6HK       0.179500
     29 H4           6.1180    -1.3300     0.3840 ha         1 6HK       0.118000
     30 H3           6.9620     0.0520     2.2410 ha         1 6HK       0.109000
     31 H10          2.9960     1.4080     3.0510 ha         1 6HK       0.113000
     32 H1           4.9180     2.5380     3.9960 hc         1 6HK       0.040700
     33 H2           6.5620     1.9770     3.6620 hc         1 6HK       0.040700
     34 H203         6.5440    -0.2750     7.3530 h1         1 6HK       0.001700
     35 H202         6.2870     1.1680     8.3440 h1         1 6HK       0.001700
     36 H201         4.9010     0.2870     7.6880 h1         1 6HK       0.001700
     37 H5           3.0260    -2.1850    -0.1590 hn         1 6HK       0.263800
     38 H8           0.4760     1.3640    -2.1960 ha         1 6HK       0.119000
     39 H7           1.5180     1.2990    -4.4020 ha         1 6HK       0.117000
     40 H6           4.5020    -1.4220    -2.9390 ha         1 6HK       0.127000
     41 H193         1.4660     0.6850    -7.5820 h1         1 6HK       0.029700
     42 H191         1.6400     1.7220    -6.1590 h1         1 6HK       0.029700
     43 H192         1.0400     0.0680    -5.9800 h1         1 6HK       0.029700
     44 H12          3.8540     0.2180    -8.3760 h5         1 6HK       0.023100
     45 H11          5.7150    -0.8240    -4.7490 h4         1 6HK       0.007100
@<TRIPOS>BOND
     1     1     2 2   
     2     2     3 1   
     3     2    15 1   
     4     3     4 1   
     5     3    28 1   
     6     4     5 ar  
     7     4     8 ar  
     8     5     6 ar  
     9     5    17 1   
    10     6     7 ar  
    11     6    29 1   
    12     7     9 ar  
    13     7    30 1   
    14     8     9 ar  
    15     8    31 1   
    16     9    10 1   
    17    10    11 1   
    18    10    32 1   
    19    10    33 1   
    20    11    12 1   
    21    11    14 2   
    22    12    13 1   
    23    13    34 1   
    24    13    35 1   
    25    13    36 1   
    26    15    16 ar  
    27    15    18 ar  
    28    16    17 1   
    29    16    21 ar  
    30    17    37 1   
    31    18    19 ar  
    32    18    38 1   
    33    19    20 ar  
    34    19    39 1   
    35    20    21 ar  
    36    20    22 1   
    37    21    40 1   
    38    22    23 1   
    39    22    27 2   
    40    23    24 1   
    41    23    25 1   
    42    24    41 1   
    43    24    42 1   
    44    24    43 1   
    45    25    26 2   
    46    25    44 1   
    47    26    27 1   
    48    27    45 1   
@<TRIPOS>SUBSTRUCTURE
     1 6HK         1 TEMP              0 ****  ****    0 ROOT
