@<TRIPOS>MOLECULE
molecule
   52    56     1     0     0
SMALL
bcc


@<TRIPOS>ATOM
      1 C4           0.0000     0.0000     0.0000 ca         1 6HL       0.543800
      2 C5           1.4070     0.0000     0.0000 ca         1 6HL      -0.545500
      3 C6           2.0790     0.0000     1.2330 ca         1 6HL       0.796200
      4 N1           1.3520     0.0000     2.3470 nb         1 6HL      -0.849000
      5 N3          -0.6390    -0.0000     1.1700 nb         1 6HL      -0.813000
      6 CBC         -6.4790     3.1180    -3.3910 c2         1 6HL      -0.129000
      7 CBB         -5.6510     2.0790    -3.4640 ce         1 6HL      -0.254200
      8 OBA         -3.9030     3.2320    -2.4390 o          1 6HL      -0.611100
      9 NAW         -3.3920     1.1990    -3.1710 n          1 6HL      -0.488800
     10 CAX         -2.0370     1.2690    -2.6100 c3         1 6HL       0.095000
     11 CAV         -3.7830     0.0000    -3.9280 c3         1 6HL       0.097000
     12 CAU         -3.5090    -1.2370    -3.0670 c3         1 6HL      -0.100400
     13 CAT         -2.0460    -1.2270    -2.6160 c3         1 6HL      -0.096400
     14 CAY         -1.7860     0.0150    -1.7660 c3         1 6HL       0.073000
     15 NAM         -0.3960     0.0060    -1.3050 na         1 6HL      -0.027800
     16 NAN          0.7310     0.0030    -2.1340 nd         1 6HL      -0.499100
     17 C2           0.0320     0.0010     2.3010 ca         1 6HL       0.763900
     18 NBD          3.4590    -0.0010     1.2880 nv         1 6HL      -0.994500
     19 CAO          1.8220    -0.0000    -1.4030 cc         1 6HL       0.448500
     20 CAC          3.2130    -0.0040    -1.9070 ca         1 6HL      -0.088900
     21 CAD          3.6400    -0.9960    -2.8210 ca         1 6HL      -0.018000
     22 CAG          2.7660    -1.9940    -3.2740 ca         1 6HL      -0.107000
     23 CAH          3.2110    -2.9340    -4.1540 ca         1 6HL      -0.125000
     24 CAI          4.5250    -2.9180    -4.6150 ca         1 6HL      -0.120000
     25 CAJ          5.4020    -1.9640    -4.1970 ca         1 6HL      -0.119000
     26 CAE          4.9780    -0.9790    -3.2890 ca         1 6HL      -0.036000
     27 CAF          5.8560     0.0220    -2.8370 ca         1 6HL      -0.105000
     28 CAA          5.4200     0.9650    -1.9560 ca         1 6HL      -0.135000
     29 CAB          4.1110     0.9650    -1.4910 ca         1 6HL      -0.122000
     30 H1          -7.4990     3.0240    -3.7450 ha         1 6HL       0.129500
     31 H2          -6.1350     4.0580    -2.9770 ha         1 6HL       0.129500
     32 H4          -5.9950     1.1400    -3.8780 ha         1 6HL       0.128000
     33 H6          -1.3130     1.3140    -3.4150 h1         1 6HL       0.079200
     34 H7          -1.9490     2.1490    -1.9850 h1         1 6HL       0.079200
     35 H8          -4.8380     0.0500    -4.1660 h1         1 6HL       0.054200
     36 H9          -3.2010    -0.0570    -4.8400 h1         1 6HL       0.054200
     37 H10         -4.1540    -1.2210    -2.1970 hc         1 6HL       0.053700
     38 H11         -3.7010    -2.1310    -3.6490 hc         1 6HL       0.053700
     39 H12         -1.8440    -2.1140    -2.0290 hc         1 6HL       0.059200
     40 H13         -1.4010    -1.2090    -3.4870 hc         1 6HL       0.059200
     41 H14         -2.4550     0.0150    -0.9140 h1         1 6HL       0.098700
     42 H15         -0.5200     0.0010     3.2330 h5         1 6HL       0.061100
     43 H16          3.9930    -0.1680     0.4580 hn         1 6HL       0.449300
     44 H17          3.9260     0.1590     2.1590 hn         1 6HL       0.449300
     45 H18          1.7410    -2.0190    -2.9240 ha         1 6HL       0.149000
     46 H19          2.5330    -3.7040    -4.5020 ha         1 6HL       0.131000
     47 H20          4.8540    -3.6760    -5.3150 ha         1 6HL       0.130000
     48 H21          6.4210    -1.9640    -4.5640 ha         1 6HL       0.134000
     49 H22          6.8810     0.0400    -3.1860 ha         1 6HL       0.135000
     50 H23          6.1050     1.7330    -1.6170 ha         1 6HL       0.134000
     51 H24          3.7900     1.7270    -0.7910 ha         1 6HL       0.144000
     52 CAZ         -4.2640     2.2100    -2.9910 c          1 6HL       0.668300
@<TRIPOS>BOND
     1    25    24 ar
     2    25    26 ar
     3    27    26 ar
     4    27    28 ar
     5    24    23 ar
     6    26    21 ar
     7    28    29 ar
     8    23    22 ar
     9    21    22 ar
    10    21    20 ar
    11    29    20 ar
    12    20    19 1
    13    19    16 2
    14    19     2 1
    15    18     3 1
    16    16    15 1
    17     2     3 ar
    18     2     1 ar
    19     3     4 ar
    20    15     1 1
    21    15    14 1
    22     1     5 ar
    23     4    17 ar
    24    10    14 1
    25    10     9 1
    26    14    13 1
    27    13    12 1
    28    11     9 1
    29    11    12 1
    30     9    52 1
    31     5    17 ar
    32    52     7 1
    33    52     8 2
    34     7     6 2
    35     6    30 1
    36     6    31 1
    37     7    32 1
    38    10    33 1
    39    10    34 1
    40    11    35 1
    41    11    36 1
    42    12    37 1
    43    12    38 1
    44    13    39 1
    45    13    40 1
    46    14    41 1
    47    17    42 1
    48    18    43 1
    49    18    44 1
    50    22    45 1
    51    23    46 1
    52    24    47 1
    53    25    48 1
    54    27    49 1
    55    28    50 1
    56    29    51 1
@<TRIPOS>SUBSTRUCTURE
     1 6HL         1 TEMP              0 ****  ****    0 ROOT
