@<TRIPOS>MOLECULE
6HL
   52    56     1     0     0
SMALL
bcc


@<TRIPOS>ATOM
      1 C4           0.0000     0.0000     0.0000 ca         1 6HL       0.359800
      2 C5           1.4070     0.0000     0.0000 ca         1 6HL      -0.563500
      3 C6           2.0790     0.0000     1.2330 ca         1 6HL       0.616200
      4 N1           1.3520     0.0000     2.3470 nb         1 6HL      -0.759000
      5 N3          -0.6390    -0.0000     1.1700 nb         1 6HL      -0.708000
      6 CBC         -6.4790     3.1180    -3.3910 c2         1 6HL      -0.052000
      7 CBB         -5.6510     2.0790    -3.4640 ce         1 6HL      -0.256200
      8 OBA         -3.9030     3.2320    -2.4390 o          1 6HL      -0.650100
      9 NAW         -3.3920     1.1990    -3.1710 n          1 6HL      -0.144800
     10 CAX         -2.0370     1.2690    -2.6100 c3         1 6HL       0.034000
     11 CAV         -3.7830     0.0000    -3.9280 c3         1 6HL       0.036000
     12 CAU         -3.5090    -1.2370    -3.0670 c3         1 6HL      -0.036400
     13 CAT         -2.0460    -1.2270    -2.6160 c3         1 6HL      -0.044400
     14 CAY         -1.7860     0.0150    -1.7660 c3         1 6HL      -0.047000
     15 NAM         -0.3960     0.0060    -1.3050 na         1 6HL       0.382200
     16 NAN          0.7310     0.0030    -2.1340 nc         1 6HL      -0.631100
     17 C2           0.0320     0.0010     2.3010 ca         1 6HL       0.721900
     18 NBD          3.4590    -0.0010     1.2880 nv         1 6HL      -0.514500
     19 CAO          1.8220    -0.0000    -1.4030 cd         1 6HL       0.489500
     20 CAC          3.2130    -0.0040    -1.9070 ca         1 6HL      -0.084900
     21 CAD          3.6400    -0.9960    -2.8210 ca         1 6HL      -0.016000
     22 CAG          2.7660    -1.9940    -3.2740 ca         1 6HL      -0.086000
     23 CAH          3.2110    -2.9340    -4.1540 ca         1 6HL      -0.098000
     24 CAI          4.5250    -2.9180    -4.6150 ca         1 6HL      -0.094000
     25 CAJ          5.4020    -1.9640    -4.1970 ca         1 6HL      -0.091000
     26 CAE          4.9780    -0.9790    -3.2890 ca         1 6HL      -0.036000
     27 CAF          5.8560     0.0220    -2.8370 ca         1 6HL      -0.077000
     28 CAA          5.4200     0.9650    -1.9560 ca         1 6HL      -0.107000
     29 CAB          4.1110     0.9650    -1.4910 ca         1 6HL      -0.104000
     30 H1          -6.1350     4.0580    -2.9770 ha         1 6HL       0.091000
     31 H2          -7.4990     3.0240    -3.7450 ha         1 6HL       0.091000
     32 H4          -5.9950     1.1400    -3.8780 ha         1 6HL       0.113000
     33 H6          -1.9490     2.1490    -1.9850 h1         1 6HL       0.051200
     34 H7          -1.3130     1.3140    -3.4150 h1         1 6HL       0.051200
     35 H8          -4.8380     0.0500    -4.1660 h1         1 6HL       0.030200
     36 H9          -3.2010    -0.0570    -4.8400 h1         1 6HL       0.030200
     37 H10         -3.7010    -2.1310    -3.6490 hc         1 6HL       0.024200
     38 H11         -4.1540    -1.2210    -2.1970 hc         1 6HL       0.024200
     39 H12         -1.8440    -2.1140    -2.0290 hc         1 6HL       0.031700
     40 H13         -1.4010    -1.2090    -3.4870 hc         1 6HL       0.031700
     41 H14         -2.4550     0.0150    -0.9140 h1         1 6HL       0.069700
     42 H15         -0.5200     0.0010     3.2330 h5         1 6HL      -0.005900
     43 H16          3.9260     0.1840     2.1540 hn         1 6HL       0.283800
     44 H17          3.9930    -0.1610     0.4570 hn         1 6HL       0.283800
     45 H18          1.7410    -2.0190    -2.9240 ha         1 6HL       0.123000
     46 H19          2.5330    -3.7040    -4.5020 ha         1 6HL       0.102000
     47 H20          4.8540    -3.6760    -5.3150 ha         1 6HL       0.102000
     48 H21          6.4210    -1.9640    -4.5640 ha         1 6HL       0.107000
     49 H22          6.8810     0.0400    -3.1860 ha         1 6HL       0.107000
     50 H23          6.1050     1.7330    -1.6170 ha         1 6HL       0.105000
     51 H24          3.7900     1.7270    -0.7910 ha         1 6HL       0.113000
     52 CAZ         -4.2640     2.2100    -2.9910 c          1 6HL       0.600300
@<TRIPOS>BOND
     1     1     2 ar  
     2     1     5 ar  
     3     1    15 1   
     4     2     3 ar  
     5     2    19 1   
     6     3     4 ar  
     7     3    18 1   
     8     4    17 ar  
     9     5    17 ar  
    10     6     7 2   
    11     6    30 1   
    12     6    31 1   
    13     7    32 1   
    14     7    52 1   
    15     8    52 2   
    16     9    10 1   
    17     9    11 1   
    18     9    52 1   
    19    10    14 1   
    20    10    33 1   
    21    10    34 1   
    22    11    12 1   
    23    11    35 1   
    24    11    36 1   
    25    12    13 1   
    26    12    37 1   
    27    12    38 1   
    28    13    14 1   
    29    13    39 1   
    30    13    40 1   
    31    14    15 1   
    32    14    41 1   
    33    15    16 1   
    34    16    19 2   
    35    17    42 1   
    36    18    43 1   
    37    18    44 1   
    38    19    20 1   
    39    20    21 ar  
    40    20    29 ar  
    41    21    22 ar  
    42    21    26 ar  
    43    22    23 ar  
    44    22    45 1   
    45    23    24 ar  
    46    23    46 1   
    47    24    25 ar  
    48    24    47 1   
    49    25    26 ar  
    50    25    48 1   
    51    26    27 ar  
    52    27    28 ar  
    53    27    49 1   
    54    28    29 ar  
    55    28    50 1   
    56    29    51 1   
@<TRIPOS>SUBSTRUCTURE
     1 6HL         1 TEMP              0 ****  ****    0 ROOT
