@<TRIPOS>MOLECULE
molecule
   32    33     1     0     0
SMALL
bcc


@<TRIPOS>ATOM
      1 C10          0.0000     0.0000     0.0000 ca         1 6HM      -0.141000
      2 C13         -0.7760     0.0120     3.6950 c3         1 6HM      -0.023100
      3 C15         -1.4240    -1.3670     5.6510 c          1 6HM       0.925100
      4 C01          3.4960     0.0000     6.0890 ca         1 6HM      -0.145000
      5 C02          3.7250    -1.0010     5.1630 ca         1 6HM      -0.134500
      6 C03          3.0390    -1.0070     3.9640 ca         1 6HM      -0.101500
      7 C04          2.1150    -0.0010     3.6880 cp         1 6HM       0.005000
      8 C05          1.8880     1.0040     4.6260 ca         1 6HM      -0.101500
      9 C06          2.5790     1.0010     5.8210 ca         1 6HM      -0.134500
     10 C07          1.3780     0.0010     2.4010 cp         1 6HM      -0.064000
     11 C08          2.0760     0.0000     1.1940 ca         1 6HM      -0.134000
     12 C09          1.3840     0.0000     0.0000 ca         1 6HM      -0.179000
     13 C11         -0.6960     0.0060     1.1940 ca         1 6HM      -0.100000
     14 C12         -0.0150     0.0060     2.3940 ca         1 6HM       0.002700
     15 C14         -0.7850    -1.3990     4.2880 c3         1 6HM      -0.257700
     16 O16         -1.8300    -0.3220     6.1050 o          1 6HM      -0.881800
     17 O17         -1.5410    -2.4970     6.3640 o          1 6HM      -0.881800
     18 C18         -1.5710    -2.3160     3.3860 c          1 6HM       0.925100
     19 O19         -1.1850    -3.5920     3.2280 o          1 6HM      -0.881800
     20 O20         -2.5470    -1.9030     2.8070 o          1 6HM      -0.881800
     21 H1          -0.5400    -0.0000    -0.9390 ha         1 6HM       0.099000
     22 H2          -1.7950     0.3350     3.5160 hc         1 6HM       0.049700
     23 H3          -0.2990     0.6930     4.3890 hc         1 6HM       0.049700
     24 H4           4.0360     0.0010     7.0280 ha         1 6HM       0.101000
     25 H5           4.4440    -1.7830     5.3780 ha         1 6HM       0.109000
     26 H6           3.2200    -1.7910     3.2400 ha         1 6HM       0.135500
     27 H7           1.1710     1.7890     4.4170 ha         1 6HM       0.135500
     28 H8           2.4030     1.7820     6.5500 ha         1 6HM       0.109000
     29 H9           3.1590    -0.0010     1.1940 ha         1 6HM       0.100000
     30 H10          1.9250    -0.0030    -0.9390 ha         1 6HM       0.090000
     31 H11         -1.7790     0.0060     1.1880 ha         1 6HM       0.161000
     32 H12          0.2320    -1.7610     4.3740 hc         1 6HM       0.042700
@<TRIPOS>BOND
     1     5     4 ar  
     2     5     6 ar  
     3     4     9 ar  
     4     6     7 ar  
     5     9     8 ar  
     6    20    18 1   
     7     7     8 ar  
     8     7    10 1   
     9    16     3 1   
    10     2    15 1   
    11     2    14 1   
    12    18    15 1   
    13    18    19 1   
    14    10    14 ar  
    15    10    11 ar  
    16     3    15 1   
    17     3    17 1   
    18    14    13 ar  
    19    11    12 ar  
    20    13     1 ar  
    21    12     1 ar  
    22     1    21 1   
    23     2    22 1   
    24     2    23 1   
    25     4    24 1   
    26     5    25 1   
    27     6    26 1   
    28     8    27 1   
    29     9    28 1   
    30    11    29 1   
    31    12    30 1   
    32    13    31 1   
    33    15    32 1   
@<TRIPOS>SUBSTRUCTURE
     1 6HM         1 TEMP              0 ****  ****    0 ROOT
