@<TRIPOS>MOLECULE
6HO
   24    25     1     0     0
SMALL
bcc


@<TRIPOS>ATOM
      1 C2           0.0000     0.0000     0.0000 ca         1 6HO       0.100900
      2 C3           1.3860     0.0000     0.0000 ca         1 6HO      -0.113000
      3 C5           1.4020    -0.0010     2.3950 ca         1 6HO      -0.050000
      4 C6           0.0060    -0.0010     2.4030 ca         1 6HO      -0.121600
      5 C7          -0.6930    -0.0010     1.1950 ca         1 6HO      -0.185000
      6 C8          -0.7280    -0.0020     3.6860 c          1 6HO       0.633700
      7 O9          -0.1240    -0.1350     4.7320 o          1 6HO      -0.643100
      8 C11         -2.9690     0.2070     2.5350 c3         1 6HO       0.084700
      9 C12         -4.3680     0.3750     3.0640 c2         1 6HO      -0.163700
     10 C13         -4.3540     0.4110     4.3670 c2         1 6HO      -0.163700
     11 C14         -2.9440     0.2730     4.8740 c3         1 6HO       0.084700
     12 F1          -0.6740     0.0060    -1.1710 f          1 6HO      -0.128900
     13 C4           2.0830     0.0000     1.1950 ca         1 6HO      -0.086000
     14 N10         -2.0680     0.1440     3.6950 n          1 6HO      -0.158800
     15 H15          1.9260     0.0010    -0.9390 ha         1 6HO       0.118000
     16 H17          1.9500    -0.0010     3.3290 ha         1 6HO       0.131000
     17 H18         -1.7770    -0.0010     1.1940 ha         1 6HO       0.165000
     18 H19         -2.7070     1.0530     1.9120 h1         1 6HO       0.032450
     19 H21         -5.2580     0.4540     2.4500 ha         1 6HO       0.127000
     20 H22         -5.2300     0.5250     4.9940 ha         1 6HO       0.127000
     21 H23         -2.8600    -0.6130     5.4920 h1         1 6HO       0.032450
     22 H24         -2.6690     1.1530     5.4420 h1         1 6HO       0.032450
     23 H16          3.1660     0.0000     1.1890 ha         1 6HO       0.111000
     24 H20         -2.8990    -0.7130     1.9660 h1         1 6HO       0.032450
@<TRIPOS>BOND
     1     1     2 ar  
     2     1     5 ar  
     3     1    12 1   
     4     2    13 ar  
     5     2    15 1   
     6     3     4 ar  
     7     3    13 ar  
     8     3    16 1   
     9     4     5 ar  
    10     4     6 1   
    11     5    17 1   
    12     6     7 2   
    13     6    14 1   
    14     8     9 1   
    15     8    14 1   
    16     8    18 1   
    17     8    24 1   
    18     9    10 2   
    19     9    19 1   
    20    10    11 1   
    21    10    20 1   
    22    11    14 1   
    23    11    21 1   
    24    11    22 1   
    25    13    23 1   
@<TRIPOS>SUBSTRUCTURE
     1 6HO         1 TEMP              0 ****  ****    0 ROOT
