@<TRIPOS>MOLECULE
molecule
   24    25     1     0     0
SMALL
bcc


@<TRIPOS>ATOM
      1 C2           0.0000     0.0000     0.0000 ca         1 6HO       0.121900
      2 C3           1.3860     0.0000     0.0000 ca         1 6HO      -0.146000
      3 C5           1.4020    -0.0010     2.3950 ca         1 6HO      -0.083000
      4 C6           0.0060    -0.0010     2.4030 ca         1 6HO      -0.116600
      5 C7          -0.6930    -0.0010     1.1950 ca         1 6HO      -0.179000
      6 C8          -0.7280    -0.0020     3.6860 c          1 6HO       0.702700
      7 O9          -0.1240    -0.1350     4.7320 o          1 6HO      -0.599100
      8 C11         -2.9690     0.2070     2.5350 c3         1 6HO       0.124700
      9 C12         -4.3680     0.3750     3.0640 c2         1 6HO      -0.187700
     10 C13         -4.3540     0.4110     4.3670 c2         1 6HO      -0.187700
     11 C14         -2.9440     0.2730     4.8740 c3         1 6HO       0.124700
     12 F1          -0.6740     0.0060    -1.1710 f          1 6HO      -0.140900
     13 C4           2.0830     0.0000     1.1950 ca         1 6HO      -0.115000
     14 N10         -2.0680     0.1440     3.6950 n          1 6HO      -0.492800
     15 H15          1.9260     0.0010    -0.9390 ha         1 6HO       0.147000
     16 H17          1.9500    -0.0010     3.3290 ha         1 6HO       0.161000
     17 H18         -1.7770    -0.0010     1.1940 ha         1 6HO       0.172000
     18 H19         -2.7070     1.0530     1.9120 h1         1 6HO       0.061450
     19 H21         -5.2580     0.4540     2.4500 ha         1 6HO       0.153500
     20 H22         -5.2300     0.5250     4.9940 ha         1 6HO       0.153500
     21 H23         -2.8600    -0.6130     5.4920 h1         1 6HO       0.061450
     22 H24         -2.6690     1.1530     5.4420 h1         1 6HO       0.061450
     23 H16          3.1660     0.0000     1.1890 ha         1 6HO       0.143000
     24 H20         -2.8990    -0.7130     1.9660 h1         1 6HO       0.061450
@<TRIPOS>BOND
     1    11    10 1   
     2    11    14 1   
     3    10     9 2   
     4     2    13 ar  
     5     2     1 ar  
     6    13     3 ar  
     7    12     1 1   
     8     1     5 ar  
     9     3     4 ar  
    10     9     8 1   
    11     5     4 ar  
    12     4     6 1   
    13    14     6 1   
    14    14     8 1   
    15     6     7 2   
    16     2    15 1   
    17     3    16 1   
    18     5    17 1   
    19     8    24 1   
    20     8    18 1   
    21     9    19 1   
    22    10    20 1   
    23    11    21 1   
    24    11    22 1   
    25    13    23 1   
@<TRIPOS>SUBSTRUCTURE
     1 6HO         1 TEMP              0 ****  ****    0 ROOT
