@<TRIPOS>MOLECULE
molecule
   31    31     1     0     0
SMALL
bcc


@<TRIPOS>ATOM
      1 C1           0.0000     0.0000     0.0000 c3         1 6HP      -0.088100
      2 C2           1.5300     0.0000     0.0000 c3         1 6HP      -0.077700
      3 C3           2.0400     0.0000     1.4420 c3         1 6HP      -0.088100
      4 C6           1.9470    -2.2700    -2.8570 cc         1 6HP       0.297700
      5 C7           2.6640    -3.3060    -2.3380 cd         1 6HP      -0.441200
      6 C8           2.9520    -4.4150    -3.1530 c          1 6HP       0.722700
      7 O9           3.5910    -5.3530    -2.7090 o          1 6HP      -0.634500
      8 C12          1.8110    -3.4010    -4.9240 c          1 6HP       0.821500
      9 C4           2.0400    -1.2480    -0.7210 c3         1 6HP       0.151400
     10 O5           1.6610    -1.1910    -2.0980 os         1 6HP      -0.328900
     11 N10          2.5170    -4.4340    -4.4280 n          1 6HP      -0.475400
     12 O13          1.4260    -3.4360    -6.0760 o          1 6HP      -0.649500
     13 N14          1.5230    -2.3290    -4.1610 n          1 6HP      -0.364000
     14 H18         -0.3610     0.2470    -0.9910 hc         1 6HP       0.041033
     15 H17         -0.3610     0.7350     0.7090 hc         1 6HP       0.041033
     16 H16         -0.3610    -0.9820     0.2820 hc         1 6HP       0.041033
     17 H19          1.8900     0.8850    -0.5100 hc         1 6HP       0.064700
     18 H22          3.1230    -0.0160     1.4420 hc         1 6HP       0.041033
     19 H21          1.6660    -0.8760     1.9580 hc         1 6HP       0.041033
     20 H20          1.6930     0.8920     1.9480 hc         1 6HP       0.041033
     21 H25          3.1550    -3.1970    -1.3780 ha         1 6HP       0.177000
     22 H27          3.6210    -5.3360    -5.9590 h1         1 6HP       0.061033
     23 H28          3.1090    -6.4260    -4.6640 h1         1 6HP       0.061033
     24 H26          1.9320    -5.8500    -5.8520 h1         1 6HP       0.061033
     25 H31         -0.2400    -1.2120    -4.2950 h1         1 6HP       0.063367
     26 H30          1.2510    -0.2840    -4.5070 h1         1 6HP       0.063367
     27 H29          0.6770    -1.3440    -5.8010 h1         1 6HP       0.063367
     28 H23          1.6090    -2.1310    -0.2650 h1         1 6HP       0.051200
     29 H24          3.1200    -1.2930    -0.6460 h1         1 6HP       0.051200
     30 C11          2.8140    -5.5870    -5.2810 c3         1 6HP       0.099300
     31 C15          0.7520    -1.2200    -4.7280 c3         1 6HP       0.092300
@<TRIPOS>BOND
     1     3     2 1   
     2     2     1 1   
     3     2     9 1   
     4    10     9 1   
     5    10     4 1   
     6     5     4 2   
     7     5     6 1   
     8     4    13 1   
     9     7     6 2   
    10     6    11 1   
    11    13    31 1   
    12    13     8 1   
    13    11     8 1   
    14    11    30 1   
    15     8    12 2   
    16     1    14 1   
    17     1    15 1   
    18     1    16 1   
    19     2    17 1   
    20     3    18 1   
    21     3    19 1   
    22     3    20 1   
    23     5    21 1   
    24    30    22 1   
    25    30    23 1   
    26    30    24 1   
    27    31    25 1   
    28    31    26 1   
    29    31    27 1   
    30     9    28 1   
    31     9    29 1   
@<TRIPOS>SUBSTRUCTURE
     1 6HP         1 TEMP              0 ****  ****    0 ROOT
