@<TRIPOS>MOLECULE
molecule
   20    20     1     0     0
SMALL
bcc


@<TRIPOS>ATOM
      1 C1           0.0000     0.0000     0.0000 c3         1 6HQ       0.142300
      2 C3           2.2680     0.0000     1.0800 c          1 6HQ       0.811500
      3 C6           3.7390    -0.0070    -0.5850 c          1 6HQ       0.706500
      4 C8           2.3450    -0.0020    -1.1810 c3         1 6HQ       0.012400
      5 C10          2.1200     1.2550    -2.0220 c3         1 6HQ      -0.089100
      6 N2           1.4650     0.0000     0.0000 n          1 6HQ      -0.507800
      7 O4           1.8610     0.0020     2.2250 o          1 6HQ      -0.648500
      8 N5           3.5650    -0.0070     0.7510 ns         1 6HQ      -0.583500
      9 O7           4.7920    -0.0130    -1.1860 o          1 6HQ      -0.578500
     10 C9           2.1180    -1.2620    -2.0200 c3         1 6HQ      -0.089100
     11 H11         -0.3610     0.0000    -1.0210 h1         1 6HQ       0.046700
     12 H13         -0.3610     0.8840     0.5110 h1         1 6HQ       0.046700
     13 H12         -0.3610    -0.8850     0.5110 h1         1 6HQ       0.046700
     14 H19          2.1260     2.1260    -1.3770 hc         1 6HQ       0.053700
     15 H18          2.9110     1.3450    -2.7560 hc         1 6HQ       0.053700
     16 H20          1.1640     1.1860    -2.5270 hc         1 6HQ       0.053700
     17 H14          4.3130    -0.0090     1.4160 hn         1 6HQ       0.362500
     18 H15          1.1620    -1.1920    -2.5240 hc         1 6HQ       0.053700
     19 H16          2.9080    -1.3530    -2.7550 hc         1 6HQ       0.053700
     20 H17          2.1230    -2.1310    -1.3740 hc         1 6HQ       0.053700
@<TRIPOS>BOND
     1    10     4 1   
     2     1     6 1   
     3     4     6 1   
     4     4     3 1   
     5     4     5 1   
     6     6     2 1   
     7     2     7 2   
     8     2     8 1   
     9     3     9 2   
    10     3     8 1   
    11     1    11 1   
    12     1    12 1   
    13     1    13 1   
    14     5    14 1   
    15     5    15 1   
    16     5    16 1   
    17     8    17 1   
    18    10    18 1   
    19    10    19 1   
    20    10    20 1   
@<TRIPOS>SUBSTRUCTURE
     1 6HQ         1 TEMP              0 ****  ****    0 ROOT
