@<TRIPOS>MOLECULE
molecule
   46    48     1     0     0
SMALL
bcc


@<TRIPOS>ATOM
      1 C1           0.0000     0.0000     0.0000 c3         1 6HR      -0.052800
      2 C2           1.5070     0.0000     0.0000 ca         1 6HR      -0.066300
      3 C3           2.1990     0.0000     1.1940 ca         1 6HR      -0.131000
      4 C5           4.2790    -0.0000     0.0000 ca         1 6HR      -0.135000
      5 C6           3.5980    -0.0060    -1.2000 ca         1 6HR      -0.109000
      6 C7           2.2050    -0.0060    -1.2060 cp         1 6HR      -0.046000
      7 C8           1.4670    -0.0130    -2.4940 cp         1 6HR      -0.010000
      8 C10          0.8180    -1.1340    -4.5190 ca         1 6HR       0.147600
      9 C12          0.8720    -2.1070    -6.7250 cc         1 6HR       0.713300
     10 C14          0.8190    -2.7500    -8.8610 cd         1 6HR       0.417600
     11 C15          0.7340    -3.7720    -9.9650 c3         1 6HR      -0.101700
     12 C16          1.8270    -4.8240    -9.7710 c3         1 6HR      -0.076400
     13 C19          0.9350    -1.4430    -9.0960 cc         1 6HR      -0.233400
     14 C21          0.0850    -0.0160    -4.8990 ca         1 6HR      -0.172000
     15 C22          0.0460     1.0990    -4.0830 ca         1 6HR      -0.099000
     16 C23          0.7330     1.1060    -2.8850 ca         1 6HR      -0.089300
     17 C24          0.6890     2.3240    -1.9990 c3         1 6HR      -0.050800
     18 C4           3.5830    -0.0000     1.1950 ca         1 6HR      -0.121000
     19 C9           1.5100    -1.1350    -3.3170 ca         1 6HR      -0.144000
     20 N11          0.8540    -2.2610    -5.3470 nu         1 6HR      -0.753300
     21 N13          0.7860    -3.0780    -7.5820 nd         1 6HR      -0.760000
     22 C17          1.7410    -5.8620   -10.8930 c3         1 6HR       0.138400
     23 O18          2.7620    -6.8450   -10.7120 oh         1 6HR      -0.609800
     24 S20          1.0010    -0.6120    -7.5440 ss         1 6HR      -0.216300
     25 H25         -0.3610    -0.6730     0.7690 hc         1 6HR       0.047033
     26 H26         -0.3610     1.0020     0.1980 hc         1 6HR       0.047033
     27 H27         -0.3610    -0.3290    -0.9670 hc         1 6HR       0.047033
     28 H28          1.6570     0.0000     2.1320 ha         1 6HR       0.132000
     29 H30          5.3620    -0.0000     0.0070 ha         1 6HR       0.131000
     30 H31          4.1450    -0.0090    -2.1350 ha         1 6HR       0.137000
     31 H34          0.8700    -3.2820   -10.9220 hc         1 6HR       0.052700
     32 H35         -0.2370    -4.2500    -9.9400 hc         1 6HR       0.052700
     33 H37          1.6900    -5.3150    -8.8150 hc         1 6HR       0.065200
     34 H36          2.7980    -4.3460    -9.7960 hc         1 6HR       0.065200
     35 H41          0.9780    -0.9730   -10.0710 h4         1 6HR       0.178000
     36 H42         -0.4550    -0.0170    -5.8380 ha         1 6HR       0.149000
     37 H43         -0.5250     1.9690    -4.3840 ha         1 6HR       0.137000
     38 H44         -0.2550     2.3510    -1.4680 hc         1 6HR       0.047033
     39 H45          0.7870     3.2160    -2.6060 hc         1 6HR       0.047033
     40 H46          1.5030     2.2810    -1.2850 hc         1 6HR       0.047033
     41 H29          4.1220     0.0020     2.1350 ha         1 6HR       0.130000
     42 H32          2.0810    -2.0060    -3.0200 ha         1 6HR       0.144000
     43 H33          0.8270    -3.1770    -4.9460 hn         1 6HR       0.468800
     44 H38          1.8780    -5.3710   -11.8500 h1         1 6HR       0.017200
     45 H39          0.7690    -6.3410   -10.8690 h1         1 6HR       0.017200
     46 H40          2.7410    -7.4560   -11.4300 ho         1 6HR       0.400000
@<TRIPOS>BOND
     1     1     2 1   
     2     2     3 ar  
     3     2     6 ar  
     4     3    18 ar  
     5     4     5 ar  
     6     4    18 ar  
     7     5     6 ar  
     8     6     7 1   
     9     7    16 ar  
    10     7    19 ar  
    11     8    14 ar  
    12     8    19 ar  
    13     8    20 1   
    14     9    20 1   
    15     9    21 2   
    16     9    24 1   
    17    10    11 1   
    18    10    13 2   
    19    10    21 1   
    20    11    12 1   
    21    12    22 1   
    22    13    24 1   
    23    14    15 ar  
    24    15    16 ar  
    25    16    17 1   
    26    22    23 1   
    27     1    25 1   
    28     1    26 1   
    29     1    27 1   
    30     3    28 1   
    31     4    29 1   
    32     5    30 1   
    33    11    31 1   
    34    11    32 1   
    35    12    33 1   
    36    12    34 1   
    37    13    35 1   
    38    14    36 1   
    39    15    37 1   
    40    17    38 1   
    41    17    39 1   
    42    17    40 1   
    43    18    41 1   
    44    19    42 1   
    45    20    43 1   
    46    22    44 1   
    47    22    45 1   
    48    23    46 1   
@<TRIPOS>SUBSTRUCTURE
     1 6HR         1 TEMP              0 ****  ****    0 ROOT
