@<TRIPOS>MOLECULE
6HS
   67    64     1     0     0
SMALL
bcc


@<TRIPOS>ATOM
      1 C11         0.6400   -0.0210    0.4480 c3        1 6HS      0.110000
      2 C12        -5.8000   -1.8860   -3.9570 c1        1 6HS     -0.176500
      3 C13        -3.5500    4.9310   -0.3160 c1        1 6HS      0.085000
      4 C21         2.1650   -0.3240    0.4120 c3        1 6HS     -0.040000
      5 C22        -5.3670   -0.7730   -3.0750 c3        1 6HS     -0.225000
      6 C23        -4.3640    5.4050   -1.4950 c3        1 6HS     -0.107000
      7 C31         2.6210   -0.3810    1.8800 c3        1 6HS     -0.122000
      8 C32        -3.9660   -0.9070   -2.5820 c1        1 6HS     -0.176500
      9 C33        -3.5730    6.1120   -2.5910 c3        1 6HS     -0.227000
     10 C41         1.7220   -1.2460    2.6760 c2        1 6HS     -0.253000
     11 C42        -1.2390    0.2040   -1.0270 c3        1 6HS     -0.005000
     12 C43        -2.4310    6.9450   -2.0080 c3        1 6HS     -0.054000
     13 C51         0.4650   -1.5240    2.2890 c2        1 6HS      0.000000
     14 C52        -1.6610    1.5580   -0.4540 c3        1 6HS     -0.037000
     15 C53        -1.5980    6.1140   -1.0360 c1        1 6HS      0.128000
     16 C61        -0.5000   -2.3890    3.0450 c3        1 6HS      0.028000
     17 C62        -3.0090    1.9840   -1.0530 c3        1 6HS     -0.086000
     18 C83        -1.5270    7.4760   -3.1110 c3        1 6HS     -0.190000
     19 N12        -6.7880   -1.7980   -4.7980 n3        1 6HS     -0.221000
     20 N21         2.5420   -1.5070   -0.3280 n3        1 6HS     -0.323000
     21 N32        -3.2660   -1.9900   -2.7650 n3        1 6HS     -0.221000
     22 N33        -4.6240    9.8890   -3.0510 n3        1 6HS     -0.238000
     23 O61        -1.2960   -3.1950    2.2030 oh        1 6HS     -0.319000
     24 O11         0.1370   -0.1130   -0.8620 os        1 6HS     -0.266000
     25 O23        -5.3590    6.3190   -1.0420 oh        1 6HS     -0.318000
     26 O43        -2.9270    8.0910   -1.3120 oh        1 6HS     -0.319000
     27 O51        -0.1170   -1.0310    1.1350 os        1 6HS     -0.274000
     28 O52        -0.6570    2.5020   -0.7900 oh        1 6HS     -0.332000
     29 O53        -2.2550    5.2370   -0.2740 os        1 6HS     -0.128000
     30 O62        -2.8170    2.9960   -2.0310 oh        1 6HS     -0.372000
     31 H1          0.4270    0.9760    0.9200 h2        1 6HS      0.109000
     32 H2         -3.5420    1.1020   -1.5110 h1        1 6HS      0.125500
     33 H3         -2.1420    2.6750   -2.6450 ho        1 6HS      0.220000
     34 H4          2.6560    0.5560   -0.0970 h1        1 6HS      0.122000
     35 H5         -5.4460    0.2450   -3.5510 hc        1 6HS      0.116500
     36 H6         -6.0240   -0.7610   -2.1580 hc        1 6HS      0.116500
     37 H7         -4.8490    4.4790   -1.9290 h1        1 6HS      0.139000
     38 H8          2.6140    0.6610    2.2990 hc        1 6HS      0.104000
     39 H9          3.6750   -0.7600    1.9390 hc        1 6HS      0.104000
     40 H10        -1.3680    0.1960   -2.1440 h1        1 6HS      0.103500
     41 H11        -3.1480    5.3350   -3.2790 hc        1 6HS      0.127000
     42 H12         2.1260   -1.6640    3.6080 ha        1 6HS      0.142000
     43 H13        -1.8710   -0.5950   -0.5570 h1        1 6HS      0.103500
     44 H14        -1.7490    1.4850    0.6660 h1        1 6HS      0.087000
     45 H15        -0.4450    4.4250   -2.3370 ha        1 6HS      0.008000
     46 H16        -0.9970    4.5690   -2.7070 ha        1 6HS      0.008000
     47 H17        -1.1570   -1.7300    3.6770 h1        1 6HS      0.097500
     48 H18         0.0560   -3.1130    3.7000 h1        1 6HS      0.097500
     49 H19        -3.6530    2.4750   -0.2740 h1        1 6HS      0.125500
     50 H20        -1.0280    6.6250   -3.6310 hc        1 6HS      0.093000
     51 H21        -0.7500    8.1440   -2.6680 hc        1 6HS      0.093000
     52 H22        -2.1320    8.0600   -3.8450 hc        1 6HS      0.093000
     53 H23        -4.5740   10.7270   -3.5860 hn        1 6HS      0.191000
     54 H24        -5.7570    8.3330   -2.3560 ha        1 6HS      0.047000
     55 H25        -3.7600    9.6280   -2.6110 hn        1 6HS      0.191000
     56 H26        -7.0160   -2.5960   -5.3480 hn        1 6HS      0.198500
     57 H27        -7.3610   -0.9930   -4.9570 hn        1 6HS      0.198500
     58 H29         2.1730   -1.4540   -1.2580 hn        1 6HS      0.153000
     59 H30         2.1780   -2.3270    0.1200 hn        1 6HS      0.153000
     60 H32        -2.3380   -2.0260   -2.4050 hn        1 6HS      0.198500
     61 H33        -3.5890   -2.8080   -3.2450 hn        1 6HS      0.198500
     62 H35        -4.2600    6.7780   -3.1760 hc        1 6HS      0.127000
     63 H37        -1.6930   -2.6190    1.5370 ho        1 6HS      0.213000
     64 H38        -5.9220    5.8390   -0.4210 ho        1 6HS      0.223000
     65 H39        -3.7520    7.8360   -0.8740 ho        1 6HS      0.222000
     66 H40        -0.9670    3.3640   -0.4710 ho        1 6HS      0.221000
     67 C93        -5.7550    9.2600   -2.9750 c1        1 6HS     -0.194000
@<TRIPOS>BOND
     1    1    4 1   
     2    1   24 1   
     3    1   27 1   
     4    1   31 1   
     5    2    5 1   
     6    2   19 1   
     7    3    6 1   
     8    3   29 1   
     9    4    7 1   
    10    4   20 1   
    11    4   34 1   
    12    5    8 1   
    13    5   35 1   
    14    5   36 1   
    15    6    9 1   
    16    6   25 1   
    17    6   37 1   
    18    7   10 1   
    19    7   38 1   
    20    7   39 1   
    21    8   21 1   
    22    9   12 1   
    23    9   41 1   
    24    9   62 1   
    25   10   13 1   
    26   10   42 1   
    27   11   14 1   
    28   11   24 1   
    29   11   40 1   
    30   11   43 1   
    31   12   15 1   
    32   12   18 1   
    33   12   26 1   
    34   13   16 1   
    35   13   27 1   
    36   14   17 1   
    37   14   28 1   
    38   14   44 1   
    39   15   29 1   
    40   16   23 1   
    41   16   47 1   
    42   16   48 1   
    43   17   30 1   
    44   17   32 1   
    45   17   49 1   
    46   18   50 1   
    47   18   51 1   
    48   18   52 1   
    49   19   56 1   
    50   19   57 1   
    51   20   58 1   
    52   20   59 1   
    53   21   60 1   
    54   21   61 1   
    55   22   53 1   
    56   22   55 1   
    57   22   67 1   
    58   23   63 1   
    59   25   64 1   
    60   26   65 1   
    61   28   66 1   
    62   30   33 1   
    63   45   46 1   
    64   54   67 1   
@<TRIPOS>SUBSTRUCTURE
     1 6HS         1 TEMP              0 ****  ****    0 ROOT
