@<TRIPOS>MOLECULE
molecule
   70    72     1     0     0
SMALL
bcc


@<TRIPOS>ATOM
      1 C11          0.0000     0.0000     0.0000 c3         1 6HS       0.284900
      2 C12         -4.2250     1.1310    -2.9980 c3         1 6HS      -0.314500
      3 C13         -4.0290     4.2080    -1.0260 c3         1 6HS       0.017900
      4 C21          1.5350     0.0000     0.0000 c3         1 6HS       0.050500
      5 C22         -3.9720    -0.3440    -2.6780 c3         1 6HS      -0.172400
      6 C23         -4.5190     5.5940    -1.4520 c3         1 6HS       0.163100
      7 C31          2.0140     0.0000     1.4560 c3         1 6HS      -0.011200
      8 C32         -2.4670    -0.5910    -2.5660 c3         1 6HS       0.227500
      9 C33         -3.4700     6.2430    -2.3600 c3         1 6HS       0.173500
     10 C41          1.2480    -1.0350     2.2340 c2         1 6HS      -0.349200
     11 C42         -1.8890     0.2800    -1.4480 c3         1 6HS      -0.083900
     12 C43         -2.1340     6.3020    -1.6130 c3         1 6HS       0.097800
     13 C51          0.1250    -1.5470     1.8050 c2         1 6HS       0.209900
     14 C52         -2.1410     1.7550    -1.7690 c3         1 6HS       0.071100
     15 C53         -1.7350     4.8900    -1.1810 c3         1 6HS       0.059400
     16 C61         -0.5690    -2.5700     2.6660 c3         1 6HS       0.181600
     17 C62         -3.6470     2.0020    -1.8810 c3         1 6HS       0.018100
     18 C83         -1.0580     6.8780    -2.5360 c3         1 6HS      -0.099100
     19 N12         -5.6700     1.3680    -3.1060 nz         1 6HS      -0.705600
     20 N21          2.0320    -1.2010    -0.6860 nz         1 6HS      -0.803600
     21 N32         -2.2250    -2.0070    -2.2580 nz         1 6HS      -0.803600
     22 N33         -3.8980     7.6030    -2.7120 n7         1 6HS      -0.746200
     23 O61         -1.8220    -2.0480     3.1110 oh         1 6HS      -0.620800
     24 O11         -0.4820     0.0490    -1.3440 os         1 6HS      -0.413600
     25 O23         -5.7520     5.4660    -2.1630 oh         1 6HS      -0.588800
     26 O43         -2.2680     7.1350    -0.4600 oh         1 6HS      -0.587800
     27 O51         -0.4470    -1.2050     0.6290 os         1 6HS      -0.448900
     28 O52         -1.6010     2.5680    -0.7260 oh         1 6HS      -0.523800
     29 O53         -2.7670     4.3330    -0.3650 os         1 6HS      -0.374600
     30 O62         -3.8820     3.3790    -2.1810 os         1 6HS      -0.252600
     31 H1          -0.3630     0.8560     0.5550 h2         1 6HS       0.117700
     32 H2          -3.4000     1.0060    -2.3070 hx         1 6HS       0.344700
     33 H3          -3.4790     4.1360    -1.9560 h2         1 6HS       0.285700
     34 H4           1.4620     0.8960    -0.6050 hx         1 6HS       0.148700
     35 H5          -3.0100     0.0530    -2.3770 hc         1 6HS       0.062700
     36 H6          -4.4950    -0.6340    -1.7750 hc         1 6HS       0.062700
     37 H7          -4.6660     6.2100    -0.5730 h1         1 6HS       0.134700
     38 H8           1.2770     0.7940     1.4640 hc         1 6HS       0.105200
     39 H9           3.0330     0.2750     1.6990 hc         1 6HS       0.105200
     40 H10         -1.9900    -0.3340    -3.5040 hx         1 6HS       0.181700
     41 H11         -3.1490     5.3940    -2.9510 h1         1 6HS       0.048700
     42 H12          0.6360    -0.1580     2.4100 ha         1 6HS       0.216000
     43 H13         -2.3710     0.0290    -0.5110 h1         1 6HS       0.093700
     44 H14         -1.5900     1.7410    -2.7020 h1         1 6HS       0.146700
     45 H15         -1.5760     4.1350    -1.9420 h1         1 6HS       0.068700
     46 H16         -0.8350     4.9650    -0.5820 h1         1 6HS       0.068700
     47 H17          0.0510    -2.8010     3.5240 h1         1 6HS       0.093700
     48 H18         -0.7380    -3.4720     2.0900 h1         1 6HS       0.093700
     49 H19         -4.1230     1.7450    -0.9420 h1         1 6HS       0.080700
     50 H20         -1.0810     6.0170    -3.1940 hc         1 6HS       0.067033
     51 H21         -1.3830     7.7840    -3.0330 hc         1 6HS       0.067033
     52 H22         -0.1030     6.9880    -2.0370 hc         1 6HS       0.067033
     53 H23         -5.8230     7.6980    -3.5370 h1         1 6HS       0.055033
     54 H24         -4.5460     8.4040    -4.5370 h1         1 6HS       0.055033
     55 H25         -4.6910     6.6470    -4.4000 h1         1 6HS       0.055033
     56 H26         -6.0600     1.4720    -2.1900 hn         1 6HS       0.459467
     57 H27         -6.1020     0.5910    -3.5660 hn         1 6HS       0.459467
     58 H29          1.4790    -1.9910    -0.4180 hn         1 6HS       0.464467
     59 H30          2.9860    -1.3600    -0.4300 hn         1 6HS       0.464467
     60 H32         -1.2830    -2.1220    -1.9380 hn         1 6HS       0.474800
     61 H33         -2.3670    -2.5570    -3.0820 hn         1 6HS       0.474800
     62 H35         -4.3670     8.0180    -1.9310 hn         1 6HS       0.398800
     63 H37         -2.1320    -2.5560     3.8430 ho         1 6HS       0.461000
     64 H38         -6.4620     5.7580    -1.6170 ho         1 6HS       0.448000
     65 H39         -1.5340     7.7260    -0.4110 ho         1 6HS       0.440000
     66 H40         -1.9760     2.3100     0.1000 ho         1 6HS       0.441000
     67 C93         -4.7990     7.5870    -3.8730 c3         1 6HS       0.136100
     68 H123        -5.8330     2.2020    -3.6350 hn         1 6HS       0.459467
     69 H213         1.9770    -1.0660    -1.6760 hn         1 6HS       0.464467
     70 H323        -2.8450    -2.3010    -1.5290 hn         1 6HS       0.474800
@<TRIPOS>BOND
     1    20     4 1
     2     4     7 1
     3     4     1 1
     4     7    10 1
     5    18    12 1
     6     1    27 1
     7     1    24 1
     8    10    13 2
     9    27    13 1
    10    15    12 1
    11    15    29 1
    12    13    16 1
    13    28    14 1
    14    26    12 1
    15    12     9 1
    16    16    23 1
    17    24    11 1
    18    29     3 1
    19    14    11 1
    20    14    17 1
    21    11     8 1
    22     9    22 1
    23     9     6 1
    24     3    30 1
    25     3     6 1
    26    22    67 1
    27    30    17 1
    28    17     2 1
    29     6    25 1
    30     8    21 1
    31     8     5 1
    32     2     5 1
    33     2    19 1
    34     1    31 1
    35     2    32 1
    36     3    33 1
    37     4    34 1
    38     5    35 1
    39     5    36 1
    40     6    37 1
    41     7    38 1
    42     7    39 1
    43     8    40 1
    44     9    41 1
    45    10    42 1
    46    11    43 1
    47    14    44 1
    48    15    45 1
    49    15    46 1
    50    16    47 1
    51    16    48 1
    52    17    49 1
    53    18    50 1
    54    18    51 1
    55    18    52 1
    56    67    53 1
    57    67    54 1
    58    67    55 1
    59    19    56 1
    60    19    57 1
    61    20    58 1
    62    20    59 1
    63    21    60 1
    64    21    61 1
    65    22    62 1
    66    23    63 1
    67    25    64 1
    68    26    65 1
    69    28    66 1
    70    68    19 1
    71    69    20 1
    72    70    21 1
@<TRIPOS>SUBSTRUCTURE
     1 6HS         1 TEMP              0 ****  ****    0 ROOT
