@<TRIPOS>MOLECULE
6HU
   61    63     1     0     0
SMALL
bcc


@<TRIPOS>ATOM
      1 C1           0.0000     0.0000     0.0000 c3         1 6HU       0.241700
      2 C3           2.0100     0.0000     1.3060 c3         1 6HU       0.231100
      3 C6           3.3590    -0.7210     1.2630 c3         1 6HU      -0.164700
      4 C8           3.7260    -2.8040    -0.0850 cc         1 6HU      -0.174300
      5 C10          2.3770    -4.1890     1.0240 cd         1 6HU       0.472200
      6 C12          0.9090    -5.3480     2.5670 ca         1 6HU       0.014600
      7 C13          0.9320    -4.2560     3.4170 ca         1 6HU      -0.137000
      8 C14          0.1560    -4.2610     4.5750 cp         1 6HU       0.007000
      9 C15         -0.6400    -5.3650     4.8720 ca         1 6HU      -0.070300
     10 C16         -1.4800    -5.3710     6.1240 c3         1 6HU       0.041200
     11 C21         -0.6490    -9.7220     1.3550 c3         1 6HU      -0.050200
     12 C23          0.1770    -3.0930     5.4880 cp         1 6HU      -0.047000
     13 C24         -0.3140    -1.8610     5.0610 ca         1 6HU      -0.086000
     14 C25         -0.2920    -0.7770     5.9150 ca         1 6HU      -0.109000
     15 C26          0.2180    -0.9130     7.1940 ca         1 6HU      -0.086000
     16 C27          0.7070    -2.1320     7.6240 ca         1 6HU      -0.099000
     17 C28          0.6840    -3.2250     6.7800 ca         1 6HU      -0.073300
     18 O2           1.4280     0.0000     0.0000 os         1 6HU      -0.395600
     19 C4           2.2180     1.4430     1.7710 c3         1 6HU       0.191400
     20 O5           3.1790     2.0820     0.9290 oh         1 6HU      -0.567800
     21 N7           3.1470    -2.1330     0.9330 na         1 6HU       0.553400
     22 C9           3.2700    -4.0770    -0.0540 cd         1 6HU      -0.388300
     23 C17         -0.6610    -6.4530     4.0220 ca         1 6HU      -0.168000
     24 C18          0.1150    -6.4530     2.8740 ca         1 6HU       0.037100
     25 O19          0.0920    -7.5260     2.0390 os         1 6HU      -0.349900
     26 C20         -0.7550    -8.6170     2.4070 c3         1 6HU       0.196400
     27 N22          0.7140   -10.2710     1.3560 nz         1 6HU       0.086400
     28 C29          1.2110    -4.5550     7.2520 c3         1 6HU       0.042200
     29 N30          2.3100    -3.0220     1.6190 nc         1 6HU      -0.732800
     30 H35         -0.3610    -1.0140    -0.1260 h1         1 6HU      -0.009300
     31 H36         -0.3610     0.3980     0.9410 h1         1 6HU      -0.009300
     32 H37         -0.3610     0.6160    -0.8150 h1         1 6HU      -0.009300
     33 H31          1.3490    -0.5100     1.9960 h1         1 6HU       0.012700
     34 H41          2.6230    -0.9840     2.0140 h1         1 6HU       0.081200
     35 H42          4.2050    -0.4100     1.8640 h1         1 6HU       0.081200
     36 H43          4.4320    -2.3960    -0.7990 h4         1 6HU       0.157000
     37 H46          1.5520    -3.3990     3.1830 ha         1 6HU       0.195000
     38 H47         -1.0460    -6.0520     6.8460 hc         1 6HU       0.019700
     39 H49         -1.5130    -4.3730     6.5420 hc         1 6HU       0.019700
     40 H48         -2.4850    -5.6940     5.8820 hc         1 6HU       0.019700
     41 H54         -0.8730    -9.3130     0.3770 hx         1 6HU       0.090200
     42 H53         -1.3560   -10.5100     1.5870 hx         1 6HU       0.090200
     43 H55         -0.7130    -1.7540     4.0590 ha         1 6HU       0.107000
     44 H56         -0.6740     0.1810     5.5830 ha         1 6HU       0.106000
     45 H57          0.2350    -0.0590     7.8610 ha         1 6HU       0.108000
     46 H58          1.1030    -2.2320     8.6280 ha         1 6HU       0.112000
     47 H38          1.2780     1.9790     1.7170 h1         1 6HU      -0.005800
     48 H39          2.5760     1.4440     2.7930 h1         1 6HU      -0.005800
     49 H40          3.3370     2.9580     1.2400 ho         1 6HU       0.392000
     50 H44          3.5450    -4.8700    -0.7390 ha         1 6HU       0.134000
     51 H45          1.7870    -6.1860     0.8670 hn         1 6HU       0.271800
     52 H50         -1.2790    -7.3110     4.2570 ha         1 6HU       0.108000
     53 H52         -0.4450    -9.0050     3.3700 h1         1 6HU       0.039700
     54 H51         -1.7800    -8.2740     2.4690 h1         1 6HU       0.039700
     55 H32          1.0230   -10.3940     2.2990 hn         1 6HU       0.225467
     56 H33          0.7190   -11.1540     0.8850 hn         1 6HU       0.225467
     57 H59          1.3540    -5.2100     6.4010 hc         1 6HU       0.014033
     58 H61          0.5000    -5.0020     7.9370 hc         1 6HU       0.014033
     59 H60          2.1570    -4.4090     7.7580 hc         1 6HU       0.014033
     60 H223         1.3280    -9.6380     0.8830 hn         1 6HU       0.225467
     61 N11          1.6880    -5.3470     1.4030 nu         1 6HU      -0.280300
@<TRIPOS>BOND
     1     1    18 1   
     2     1    30 1   
     3     1    31 1   
     4     1    32 1   
     5     2     3 1   
     6     2    18 1   
     7     2    19 1   
     8     2    33 1   
     9     3    21 1   
    10     3    34 1   
    11     3    35 1   
    12     4    21 1   
    13     4    22 2   
    14     4    36 1   
    15     5    22 1   
    16     5    29 2   
    17     5    61 1   
    18     6     7 ar  
    19     6    24 ar  
    20     6    61 1   
    21     7     8 ar  
    22     7    37 1   
    23     8     9 ar  
    24     8    12 1   
    25     9    10 1   
    26     9    23 ar  
    27    10    38 1   
    28    10    39 1   
    29    10    40 1   
    30    11    26 1   
    31    11    27 1   
    32    11    41 1   
    33    11    42 1   
    34    12    13 ar  
    35    12    17 ar  
    36    13    14 ar  
    37    13    43 1   
    38    14    15 ar  
    39    14    44 1   
    40    15    16 ar  
    41    15    45 1   
    42    16    17 ar  
    43    16    46 1   
    44    17    28 1   
    45    19    20 1   
    46    19    47 1   
    47    19    48 1   
    48    20    49 1   
    49    21    29 1   
    50    22    50 1   
    51    23    24 ar  
    52    23    52 1   
    53    24    25 1   
    54    25    26 1   
    55    26    53 1   
    56    26    54 1   
    57    27    55 1   
    58    27    56 1   
    59    27    60 1   
    60    28    57 1   
    61    28    58 1   
    62    28    59 1   
    63    51    61 1   
@<TRIPOS>SUBSTRUCTURE
     1 6HU         1 TEMP              0 ****  ****    0 ROOT
