@<TRIPOS>MOLECULE
molecule
   36    38     1     0     0
SMALL
bcc


@<TRIPOS>ATOM
      1 C1           0.0000     0.0000     0.0000 c3         1 6HV      -0.053800
      2 C2           1.5060     0.0000     0.0000 ca         1 6HV      -0.065300
      3 C3           2.1980     0.0000     1.1940 ca         1 6HV      -0.130000
      4 C5           4.2790     0.0000     0.0030 ca         1 6HV      -0.135000
      5 C6           3.5980    -0.0050    -1.1980 ca         1 6HV      -0.112000
      6 C7           2.2050    -0.0050    -1.2060 cp         1 6HV      -0.047000
      7 C8           1.4680    -0.0110    -2.4940 cp         1 6HV      -0.044000
      8 C10          0.7970    -1.1390    -4.5130 ca         1 6HV      -0.176600
      9 C11          0.0800    -0.0040    -4.9010 ca         1 6HV      -0.065000
     10 C12          0.0660     1.1150    -4.0930 ca         1 6HV      -0.141000
     11 C13          0.7540     1.1170    -2.8950 ca         1 6HV      -0.041300
     12 C14          0.7330     2.3440    -2.0190 c3         1 6HV      -0.057800
     13 C15          0.8120    -2.3370    -5.3790 c          1 6HV       0.508200
     14 N18          2.0670    -4.3700    -6.0100 nc         1 6HV      -0.608000
     15 C19          3.1980    -5.0100    -5.8810 cc         1 6HV       0.348200
     16 C4           3.5820    -0.0000     1.1960 ca         1 6HV      -0.120000
     17 C9           1.4920    -1.1410    -3.3040 ca         1 6HV      -0.088000
     18 O16         -0.1420    -2.5860    -6.0910 o          1 6HV      -0.479100
     19 C17          1.9820    -3.2280    -5.3800 cd         1 6HV       0.375900
     20 C20          4.1270    -4.4080    -5.1180 cd         1 6HV      -0.205400
     21 S21          3.4970    -2.9280    -4.5340 ss         1 6HV      -0.158300
     22 H23         -0.3610     0.9980     0.2190 hc         1 6HV       0.047700
     23 H24         -0.3610    -0.3100    -0.9730 hc         1 6HV       0.047700
     24 H22         -0.3610    -0.6880     0.7550 hc         1 6HV       0.047700
     25 H25          1.6560    -0.0000     2.1320 ha         1 6HV       0.133000
     26 H27          5.3630    -0.0000     0.0090 ha         1 6HV       0.131000
     27 H28          4.1460    -0.0070    -2.1330 ha         1 6HV       0.135000
     28 H30         -0.4610     0.0000    -5.8400 ha         1 6HV       0.151000
     29 H31         -0.4880     1.9940    -4.3990 ha         1 6HV       0.140000
     30 H32          0.8370     3.2290    -2.6350 hc         1 6HV       0.051367
     31 H33         -0.2060     2.3880    -1.4810 hc         1 6HV       0.051367
     32 H34          1.5530     2.2980    -1.3130 hc         1 6HV       0.051367
     33 H26          4.1210     0.0020     2.1360 ha         1 6HV       0.131000
     34 H29          2.0490    -2.0190    -2.9980 ha         1 6HV       0.146000
     35 H36          5.1160    -4.7970    -4.9070 h4         1 6HV       0.183000
     36 H35          3.3770    -5.9660    -6.3590 h4         1 6HV       0.046100
@<TRIPOS>BOND
     1     1     2 1   
     2     2     3 ar  
     3     2     6 ar  
     4     3    16 ar  
     5     4     5 ar  
     6     4    16 ar  
     7     5     6 ar  
     8     6     7 1   
     9     7    11 ar  
    10     7    17 ar  
    11     8     9 ar  
    12     8    13 1   
    13     8    17 ar  
    14     9    10 ar  
    15    10    11 ar  
    16    11    12 1   
    17    13    18 2   
    18    13    19 1   
    19    14    15 1   
    20    14    19 2   
    21    15    20 2   
    22    19    21 1   
    23    20    21 1   
    24     1    22 1   
    25     1    23 1   
    26     1    24 1   
    27     3    25 1   
    28     4    26 1   
    29     5    27 1   
    30     9    28 1   
    31    10    29 1   
    32    12    30 1   
    33    12    31 1   
    34    12    32 1   
    35    15    36 1   
    36    16    33 1   
    37    17    34 1   
    38    20    35 1   
@<TRIPOS>SUBSTRUCTURE
     1 6HV         1 TEMP              0 ****  ****    0 ROOT
