@<TRIPOS>MOLECULE
6HW
   36    38     1     0     0
SMALL
bcc


@<TRIPOS>ATOM
      1 C1           0.0000     0.0000     0.0000 c3         1 6HW       0.042200
      2 C2           1.5060     0.0000     0.0000 ca         1 6HW      -0.069300
      3 C3           2.1990     0.0000     1.1940 ca         1 6HW      -0.104000
      4 C5           4.2790    -0.0000     0.0010 ca         1 6HW      -0.109000
      5 C6           3.5980    -0.0060    -1.1990 ca         1 6HW      -0.085000
      6 C7           2.2040    -0.0050    -1.2070 cp         1 6HW      -0.039000
      7 C8           1.4660    -0.0110    -2.4940 cp         1 6HW       0.004000
      8 C10          0.8130    -1.1330    -4.5180 ca         1 6HW      -0.020400
      9 C12          0.8600    -3.5290    -4.7900 cc         1 6HW       0.545300
     10 C14          0.9950    -5.7550    -4.7650 cd         1 6HW       0.404200
     11 C15          0.8230    -5.5950    -3.4520 cc         1 6HW      -0.171400
     12 C19          0.7370     1.1100    -2.8860 ca         1 6HW      -0.090300
     13 C4           3.5810    -0.0000     1.1950 ca         1 6HW      -0.095000
     14 C9           1.5060    -1.1340    -3.3160 ca         1 6HW      -0.132000
     15 N11          0.8500    -2.2580    -5.3460 nu         1 6HW      -0.266300
     16 N13          1.0110    -4.6310    -5.4580 nd         1 6HW      -0.664000
     17 S16          0.6820    -3.8710    -3.1250 ss         1 6HW      -0.314300
     18 C17          0.0830    -0.0130    -4.8980 ca         1 6HW      -0.125000
     19 C18          0.0500     1.1030    -4.0840 ca         1 6HW      -0.077000
     20 C20          0.6970     2.3300    -2.0020 c3         1 6HW       0.046200
     21 H23         -0.3610    -0.2730    -0.9840 hc         1 6HW       0.015700
     22 H21         -0.3610     0.9890     0.2560 hc         1 6HW       0.015700
     23 H22         -0.3610    -0.7160     0.7280 hc         1 6HW       0.015700
     24 H24          1.6580    -0.0000     2.1330 ha         1 6HW       0.106000
     25 H26          5.3630    -0.0000     0.0080 ha         1 6HW       0.103000
     26 H27          4.1460    -0.0080    -2.1340 ha         1 6HW       0.108000
     27 H30          1.1100    -6.7280    -5.2260 h4         1 6HW      -0.003900
     28 H31          0.7820    -6.3880    -2.7150 h4         1 6HW       0.160000
     29 H25          4.1200     0.0020     2.1340 ha         1 6HW       0.102000
     30 H28          2.1530    -1.9660    -3.0650 ha         1 6HW       0.142000
     31 H29          0.8820    -2.1470    -6.3400 hn         1 6HW       0.293800
     32 H32         -0.4570    -0.0130    -5.8370 ha         1 6HW       0.109000
     33 H33         -0.5180     1.9750    -4.3850 ha         1 6HW       0.108000
     34 H34          1.5310     2.3020    -1.3110 hc         1 6HW       0.015033
     35 H35         -0.2330     2.3430    -1.4460 hc         1 6HW       0.015033
     36 H36          0.7640     3.2210    -2.6140 hc         1 6HW       0.015033
@<TRIPOS>BOND
     1     1     2 1   
     2     1    21 1   
     3     1    22 1   
     4     1    23 1   
     5     2     3 ar  
     6     2     6 ar  
     7     3    13 ar  
     8     3    24 1   
     9     4     5 ar  
    10     4    13 ar  
    11     4    25 1   
    12     5     6 ar  
    13     5    26 1   
    14     6     7 1   
    15     7    12 ar  
    16     7    14 ar  
    17     8    14 ar  
    18     8    15 1   
    19     8    18 ar  
    20     9    15 1   
    21     9    16 2   
    22     9    17 1   
    23    10    11 2   
    24    10    16 1   
    25    10    27 1   
    26    11    17 1   
    27    11    28 1   
    28    12    19 ar  
    29    12    20 1   
    30    13    29 1   
    31    14    30 1   
    32    15    31 1   
    33    18    19 ar  
    34    18    32 1   
    35    19    33 1   
    36    20    34 1   
    37    20    35 1   
    38    20    36 1   
@<TRIPOS>SUBSTRUCTURE
     1 6HW         1 TEMP              0 ****  ****    0 ROOT
