@<TRIPOS>MOLECULE
6HX
   27    28     1     0     0
SMALL
bcc


@<TRIPOS>ATOM
      1 C1           0.0000     0.0000     0.0000 c3         1 6HX       0.034200
      2 C2           1.5070     0.0000     0.0000 ca         1 6HX      -0.067300
      3 C3           2.1970     0.0000     1.1970 ca         1 6HX      -0.099000
      4 C5           4.2820    -0.0010     0.0030 ca         1 6HX       0.020600
      5 C7           3.5960    -0.0070    -1.2020 ca         1 6HX      -0.094000
      6 C8           2.2040    -0.0070    -1.2060 cp         1 6HX      -0.044000
      7 C10          1.5560    -1.1110    -3.3470 ca         1 6HX      -0.083000
      8 C11          0.8610    -1.1140    -4.5390 ca         1 6HX      -0.101000
      9 C12          0.0730    -0.0320    -4.8870 ca         1 6HX      -0.094000
     10 C13         -0.0230     1.0600    -4.0440 ca         1 6HX      -0.100000
     11 C14          0.6680     1.0750    -2.8490 ca         1 6HX      -0.029600
     12 C4           3.5780    -0.0000     1.2020 ca         1 6HX      -0.104000
     13 N6           5.6790    -0.0020     0.0120 nv         1 6HX      -0.559200
     14 C9           1.4640    -0.0140    -2.4930 cp         1 6HX      -0.020000
     15 H16         -0.3610     1.0120    -0.1380 hc         1 6HX       0.016033
     16 H17         -0.3610    -0.6250    -0.8070 hc         1 6HX       0.016033
     17 H18         -0.3610    -0.3870     0.9450 hc         1 6HX       0.016033
     18 H19          1.6530     0.0010     2.1340 ha         1 6HX       0.106000
     19 H23          4.1420    -0.0100    -2.1380 ha         1 6HX       0.112000
     20 H24          2.1730    -1.9600    -3.0760 ha         1 6HX       0.113000
     21 H25          0.9320    -1.9670    -5.2030 ha         1 6HX       0.105000
     22 H26         -0.4710    -0.0390    -5.8240 ha         1 6HX       0.105000
     23 H27         -0.6410     1.9050    -4.3220 ha         1 6HX       0.114000
     24 H20          4.1140     0.0020     2.1440 ha         1 6HX       0.107000
     25 H22          6.1780    -0.8690     0.0070 hn         1 6HX       0.272300
     26 H21          6.1790     0.8650     0.0020 hn         1 6HX       0.272300
     27 Cl           0.5470     2.4460    -1.7900 cl         1 6HX      -0.014400
@<TRIPOS>BOND
     1     1     2 1   
     2     1    15 1   
     3     1    16 1   
     4     1    17 1   
     5     2     3 ar  
     6     2     6 ar  
     7     3    12 ar  
     8     3    18 1   
     9     4     5 ar  
    10     4    12 ar  
    11     4    13 1   
    12     5     6 ar  
    13     5    19 1   
    14     6    14 1   
    15     7     8 ar  
    16     7    14 ar  
    17     7    20 1   
    18     8     9 ar  
    19     8    21 1   
    20     9    10 ar  
    21     9    22 1   
    22    10    11 ar  
    23    10    23 1   
    24    11    14 ar  
    25    11    27 1   
    26    12    24 1   
    27    13    25 1   
    28    13    26 1   
@<TRIPOS>SUBSTRUCTURE
     1 6HX         1 TEMP              0 ****  ****    0 ROOT
