@<TRIPOS>MOLECULE
molecule
   27    28     1     0     0
SMALL
bcc


@<TRIPOS>ATOM
      1 C1           0.0000     0.0000     0.0000 c3         1 6HX      -0.057800
      2 C2           1.5070     0.0000     0.0000 ca         1 6HX      -0.061300
      3 C3           2.1970     0.0000     1.1970 ca         1 6HX      -0.127000
      4 C5           4.2820    -0.0010     0.0030 ca         1 6HX       0.153600
      5 C7           3.5960    -0.0070    -1.2020 ca         1 6HX      -0.123000
      6 C8           2.2040    -0.0070    -1.2060 cp         1 6HX      -0.048000
      7 C10          1.5560    -1.1110    -3.3470 ca         1 6HX      -0.109000
      8 C11          0.8610    -1.1140    -4.5390 ca         1 6HX      -0.129000
      9 C12          0.0730    -0.0320    -4.8870 ca         1 6HX      -0.122000
     10 C13         -0.0230     1.0600    -4.0440 ca         1 6HX      -0.123000
     11 C14          0.6680     1.0750    -2.8490 ca         1 6HX       0.037400
     12 C4           3.5780    -0.0000     1.2020 ca         1 6HX      -0.134000
     13 N6           5.6790    -0.0020     0.0120 nv         1 6HX      -0.990200
     14 C9           1.4640    -0.0140    -2.4930 cp         1 6HX      -0.025000
     15 H16         -0.3610     1.0120    -0.1380 hc         1 6HX       0.047700
     16 H17         -0.3610    -0.6250    -0.8070 hc         1 6HX       0.047700
     17 H18         -0.3610    -0.3870     0.9450 hc         1 6HX       0.047700
     18 H19          1.6530     0.0010     2.1340 ha         1 6HX       0.132000
     19 H23          4.1420    -0.0100    -2.1380 ha         1 6HX       0.139000
     20 H24          2.1730    -1.9600    -3.0760 ha         1 6HX       0.143000
     21 H25          0.9320    -1.9670    -5.2030 ha         1 6HX       0.134000
     22 H26         -0.4710    -0.0390    -5.8240 ha         1 6HX       0.135000
     23 H27         -0.6410     1.9050    -4.3220 ha         1 6HX       0.144000
     24 H20          4.1140     0.0020     2.1440 ha         1 6HX       0.134000
     25 H22          6.1780    -0.8690     0.0070 hn         1 6HX       0.426800
     26 H21          6.1790     0.8650     0.0020 hn         1 6HX       0.426800
     27 Cl           0.5470     2.4460    -1.7900 cl         1 6HX      -0.101400
@<TRIPOS>BOND
     1     8     7 ar  
     2     8     9 ar  
     3     7    14 ar  
     4     9    10 ar  
     5     1     2 1   
     6    14     6 1   
     7    14    11 ar  
     8    10    11 ar  
     9     2     6 ar  
    10     2     3 ar  
    11     6     5 ar  
    12    11    27 1   
    13     3    12 ar  
    14     5     4 ar  
    15    12     4 ar  
    16     4    13 1   
    17     1    15 1   
    18     1    16 1   
    19     1    17 1   
    20     3    18 1   
    21     5    19 1   
    22     7    20 1   
    23     8    21 1   
    24     9    22 1   
    25    10    23 1   
    26    12    24 1   
    27    13    25 1   
    28    13    26 1   
@<TRIPOS>SUBSTRUCTURE
     1 6HX         1 TEMP              0 ****  ****    0 ROOT
