@<TRIPOS>MOLECULE
molecule
   22    22     1     0     0
SMALL
bcc


@<TRIPOS>ATOM
      1 O3           0.0000     0.0000     0.0000 o          1 6HY      -0.854800
      2 C8           1.3430     0.0000     0.0000 c          1 6HY       0.889600
      3 O2           1.9460     0.0000     1.0460 o          1 6HY      -0.854800
      4 C3           2.0960    -0.0010    -1.3050 c3         1 6HY      -0.174400
      5 C            3.6000    -0.0010    -1.0270 c3         1 6HY      -0.153400
      6 C1           4.3530    -0.0010    -2.3310 c          1 6HY       0.577300
      7 O            3.7470    -0.0020    -3.3820 o          1 6HY      -0.557100
      8 C2           5.8200    -0.0010    -2.3320 cc         1 6HY      -0.280200
      9 C5           6.5360    -0.0010    -1.1060 cc         1 6HY      -0.008000
     10 C6           7.8940    -0.0010    -1.1380 cd         1 6HY      -0.290200
     11 C7           8.5610    -0.0010    -2.3790 c          1 6HY       0.684700
     12 O1           9.7780    -0.0020    -2.4110 o          1 6HY      -0.673500
     13 N            7.8620    -0.0020    -3.5300 ns         1 6HY      -0.405100
     14 C4           6.5180    -0.0070    -3.5260 cd         1 6HY       0.044600
     15 H2           1.8340     0.8830    -1.8740 hc         1 6HY       0.042700
     16 H3           1.8340    -0.8860    -1.8720 hc         1 6HY       0.042700
     17 H4           3.8620     0.8840    -0.4590 hc         1 6HY       0.071700
     18 H5           3.8620    -0.8850    -0.4580 hc         1 6HY       0.071700
     19 H6           6.0080    -0.0010    -0.1610 ha         1 6HY       0.161000
     20 H7           8.4600    -0.0010    -0.2150 ha         1 6HY       0.161000
     21 H9           5.9780    -0.0080    -4.4650 h4         1 6HY       0.174000
     22 H8           8.3520    -0.0050    -4.4030 hn         1 6HY       0.329500
@<TRIPOS>BOND
     1    13    14 1
     2    13    11 1
     3    12    11 2
     4    14     8 2
     5    11    10 1
     6     7     6 2
     7     8     6 1
     8     8     9 1
     9    10     9 2
    10     6     5 1
    11     5     4 1
    12     4     2 1
    13     2     3 1
    14     2     1 1
    15     4    15 1
    16     4    16 1
    17     5    17 1
    18     5    18 1
    19     9    19 1
    20    10    20 1
    21    14    21 1
    22    13    22 1
@<TRIPOS>SUBSTRUCTURE
     1 6HY         1 TEMP              0 ****  ****    0 ROOT
