@<TRIPOS>MOLECULE
6HZ
   40    42     1     0     0
SMALL
bcc


@<TRIPOS>ATOM
      1 C1           0.0000     0.0000     0.0000 c3         1 6HZ       0.044200
      2 C2           1.5070     0.0000     0.0000 ca         1 6HZ      -0.073300
      3 C3           2.1980     0.0000     1.1950 ca         1 6HZ      -0.105000
      4 C5           4.2800     0.0000     0.0030 ca         1 6HZ      -0.108000
      5 C6           3.5990    -0.0060    -1.1970 ca         1 6HZ      -0.083000
      6 C7           2.2060    -0.0060    -1.2050 cp         1 6HZ      -0.036000
      7 C8           1.4680    -0.0130    -2.4930 cp         1 6HZ      -0.043000
      8 C10          0.8170    -1.1320    -4.5230 ca         1 6HZ      -0.156600
      9 C11          0.0820    -0.0060    -4.9000 ca         1 6HZ      -0.148000
     10 C12          0.0480     1.1040    -4.0820 ca         1 6HZ      -0.109000
     11 C13          0.7350     1.1070    -2.8830 ca         1 6HZ      -0.053300
     12 C14          0.6920     2.3240    -1.9960 c3         1 6HZ       0.039200
     13 C15          0.8580    -2.3200    -5.4030 c          1 6HZ       0.636700
     14 C19         -1.4810    -1.8690    -8.2450 c2         1 6HZ      -0.165700
     15 C21         -0.1030    -3.5170    -7.4080 c3         1 6HZ       0.085200
     16 C4           3.5810     0.0000     1.1980 ca         1 6HZ      -0.095000
     17 C9           1.5110    -1.1340    -3.3150 ca         1 6HZ      -0.022000
     18 O16          1.6050    -3.2430    -5.1440 o          1 6HZ      -0.647100
     19 N17          0.0680    -2.3790    -6.4930 n          1 6HZ      -0.159800
     20 C18         -0.8080    -1.3200    -7.0160 c3         1 6HZ       0.085200
     21 C20         -1.0890    -3.0920    -8.4640 c2         1 6HZ      -0.165700
     22 H24         -0.3610     0.9880     0.2600 hc         1 6HZ       0.014033
     23 H23         -0.3610    -0.7190     0.7260 hc         1 6HZ       0.014033
     24 H22         -0.3610    -0.2690    -0.9850 hc         1 6HZ       0.014033
     25 H25          1.6560     0.0000     2.1330 ha         1 6HZ       0.106000
     26 H27          5.3640     0.0000     0.0100 ha         1 6HZ       0.104000
     27 H28          4.1470    -0.0080    -2.1320 ha         1 6HZ       0.110000
     28 H30         -0.4590    -0.0030    -5.8390 ha         1 6HZ       0.148000
     29 H31         -0.5220     1.9760    -4.3800 ha         1 6HZ       0.107000
     30 H33         -0.2540     2.3530    -1.4690 hc         1 6HZ       0.016700
     31 H34          0.7950     3.2160    -2.6010 hc         1 6HZ       0.016700
     32 H32          1.5030     2.2780    -1.2790 hc         1 6HZ       0.016700
     33 H40          0.8450    -3.7640    -7.8690 h1         1 6HZ       0.031700
     34 H39         -0.4910    -4.3710    -6.8650 h1         1 6HZ       0.031700
     35 H26          4.1190     0.0030     2.1380 ha         1 6HZ       0.102000
     36 H29          2.0830    -2.0050    -3.0170 ha         1 6HZ       0.133000
     37 H35         -1.5520    -1.0580    -6.2740 h1         1 6HZ       0.031700
     38 H36         -0.2170    -0.4500    -7.2780 h1         1 6HZ       0.031700
     39 H38         -1.4250    -3.7130    -9.2860 ha         1 6HZ       0.125500
     40 H37         -2.1900    -1.3250    -8.8590 ha         1 6HZ       0.125500
@<TRIPOS>BOND
     1     1     2 1   
     2     1    22 1   
     3     1    23 1   
     4     1    24 1   
     5     2     3 ar  
     6     2     6 ar  
     7     3    16 ar  
     8     3    25 1   
     9     4     5 ar  
    10     4    16 ar  
    11     4    26 1   
    12     5     6 ar  
    13     5    27 1   
    14     6     7 1   
    15     7    11 ar  
    16     7    17 ar  
    17     8     9 ar  
    18     8    13 1   
    19     8    17 ar  
    20     9    10 ar  
    21     9    28 1   
    22    10    11 ar  
    23    10    29 1   
    24    11    12 1   
    25    12    30 1   
    26    12    31 1   
    27    12    32 1   
    28    13    18 2   
    29    13    19 1   
    30    14    20 1   
    31    14    21 2   
    32    14    40 1   
    33    15    19 1   
    34    15    21 1   
    35    15    33 1   
    36    15    34 1   
    37    16    35 1   
    38    17    36 1   
    39    19    20 1   
    40    20    37 1   
    41    20    38 1   
    42    21    39 1   
@<TRIPOS>SUBSTRUCTURE
     1 6HZ         1 TEMP              0 ****  ****    0 ROOT
