@<TRIPOS>MOLECULE
molecule
   40    42     1     0     0
SMALL
bcc


@<TRIPOS>ATOM
      1 C1           0.0000     0.0000     0.0000 c3         1 6HZ      -0.052800
      2 C2           1.5070     0.0000     0.0000 ca         1 6HZ      -0.067300
      3 C3           2.1980     0.0000     1.1950 ca         1 6HZ      -0.131000
      4 C5           4.2800     0.0000     0.0030 ca         1 6HZ      -0.134000
      5 C6           3.5990    -0.0060    -1.1970 ca         1 6HZ      -0.109000
      6 C7           2.2060    -0.0060    -1.2050 cp         1 6HZ      -0.043000
      7 C8           1.4680    -0.0130    -2.4930 cp         1 6HZ      -0.051000
      8 C10          0.8170    -1.1320    -4.5230 ca         1 6HZ      -0.150600
      9 C11          0.0820    -0.0060    -4.9000 ca         1 6HZ      -0.135000
     10 C12          0.0480     1.1040    -4.0820 ca         1 6HZ      -0.143000
     11 C13          0.7350     1.1070    -2.8830 ca         1 6HZ      -0.046300
     12 C14          0.6920     2.3240    -1.9960 c3         1 6HZ      -0.056800
     13 C15          0.8580    -2.3200    -5.4030 c          1 6HZ       0.703700
     14 C19         -1.4810    -1.8690    -8.2450 c2         1 6HZ      -0.188700
     15 C21         -0.1030    -3.5170    -7.4080 c3         1 6HZ       0.125700
     16 C4           3.5810     0.0000     1.1980 ca         1 6HZ      -0.122000
     17 C9           1.5110    -1.1340    -3.3150 ca         1 6HZ      -0.052000
     18 O16          1.6050    -3.2430    -5.1440 o          1 6HZ      -0.604100
     19 N17          0.0680    -2.3790    -6.4930 n          1 6HZ      -0.493800
     20 C18         -0.8080    -1.3200    -7.0160 c3         1 6HZ       0.125700
     21 C20         -1.0890    -3.0920    -8.4640 c2         1 6HZ      -0.188700
     22 H24         -0.3610     0.9880     0.2600 hc         1 6HZ       0.046700
     23 H23         -0.3610    -0.7190     0.7260 hc         1 6HZ       0.046700
     24 H22         -0.3610    -0.2690    -0.9850 hc         1 6HZ       0.046700
     25 H25          1.6560     0.0000     2.1330 ha         1 6HZ       0.131000
     26 H27          5.3640     0.0000     0.0100 ha         1 6HZ       0.131000
     27 H28          4.1470    -0.0080    -2.1320 ha         1 6HZ       0.137000
     28 H30         -0.4590    -0.0030    -5.8390 ha         1 6HZ       0.156000
     29 H31         -0.5220     1.9760    -4.3800 ha         1 6HZ       0.133000
     30 H33         -0.2540     2.3530    -1.4690 hc         1 6HZ       0.049700
     31 H34          0.7950     3.2160    -2.6010 hc         1 6HZ       0.049700
     32 H32          1.5030     2.2780    -1.2790 hc         1 6HZ       0.049700
     33 H40          0.8450    -3.7640    -7.8690 h1         1 6HZ       0.059950
     34 H39         -0.4910    -4.3710    -6.8650 h1         1 6HZ       0.059950
     35 H26          4.1190     0.0030     2.1380 ha         1 6HZ       0.129000
     36 H29          2.0830    -2.0050    -3.0170 ha         1 6HZ       0.163000
     37 H35         -1.5520    -1.0580    -6.2740 h1         1 6HZ       0.059950
     38 H36         -0.2170    -0.4500    -7.2780 h1         1 6HZ       0.059950
     39 H38         -1.4250    -3.7130    -9.2860 ha         1 6HZ       0.152000
     40 H37         -2.1900    -1.3250    -8.8590 ha         1 6HZ       0.152000
@<TRIPOS>BOND
     1     4     5 ar
     2     4    16 ar
     3     5     6 ar
     4    16     3 ar
     5    12    11 1
     6     6     7 1
     7     6     2 ar
     8     3     2 ar
     9    11     7 ar
    10    11    10 ar
    11    14    20 1
    12    14    21 2
    13    20    19 1
    14     7    17 ar
    15     2     1 1
    16    10     9 ar
    17    17     8 ar
    18     9     8 ar
    19    21    15 1
    20     8    13 1
    21    19    13 1
    22    19    15 1
    23    13    18 2
    24     1    22 1
    25     1    23 1
    26     1    24 1
    27     3    25 1
    28     4    26 1
    29     5    27 1
    30     9    28 1
    31    10    29 1
    32    12    30 1
    33    12    31 1
    34    12    32 1
    35    14    40 1
    36    15    33 1
    37    15    34 1
    38    16    35 1
    39    17    36 1
    40    20    37 1
    41    20    38 1
    42    21    39 1
@<TRIPOS>SUBSTRUCTURE
     1 6HZ         1 TEMP              0 ****  ****    0 ROOT
