@<TRIPOS>MOLECULE
molecule
   68    71     1     0     0
SMALL
bcc


@<TRIPOS>ATOM
      1 C1           0.0000     0.0000     0.0000 ca         1 6IG       0.747200
      2 N1           1.3280     0.0000     0.0000 nb         1 6IG      -0.824000
      3 C2           2.0050     0.0000     1.1380 ca         1 6IG       0.971900
      4 N2           1.3990     0.0010     2.3160 nb         1 6IG      -0.789000
      5 C3           0.0770     0.0010     2.4030 ca         1 6IG       0.521600
      6 C4          -0.6790    -0.0040     1.2330 cp         1 6IG      -0.373600
      7 N3          -0.7030    -0.0010    -1.1910 nu         1 6IG      -0.912900
      8 N4           3.3890    -0.0000     1.0960 nv         1 6IG      -1.061500
      9 C5          -0.5990     0.0020     3.7490 c3         1 6IG      -0.136700
     10 C6          -0.8270     1.4440     4.2050 c3         1 6IG      -0.082100
     11 C7          -2.8450    -1.1280     1.7490 ca         1 6IG      -0.143000
     12 C8          -4.2230    -1.1170     1.7900 ca         1 6IG      -0.109000
     13 C9          -4.9370    -0.0010     1.3760 ca         1 6IG      -0.113300
     14 C10         -4.2690     1.1220     0.9200 ca         1 6IG       0.092600
     15 C11         -2.8730     1.1160     0.8780 ca         1 6IG      -0.162000
     16 C12         -2.1600    -0.0050     1.2850 cp         1 6IG      -0.008000
     17 C13         -6.4430    -0.0700     1.4390 c3         1 6IG      -0.033100
     18 C14         -7.0210     1.3340     1.2430 c3         1 6IG      -0.085400
     19 C15         -6.2700     1.9810     0.0720 c3         1 6IG       0.137800
     20 N5          -4.9060     2.2860     0.4970 nh         1 6IG      -0.545000
     21 C16         -4.1870     2.7520    -0.6960 c3         1 6IG       0.141800
     22 C17         -4.9520     3.9150    -1.3300 c3         1 6IG      -0.093400
     23 C18         -4.1700     4.4440    -2.5340 c3         1 6IG       0.124400
     24 O1          -4.8280     5.5990    -3.0590 os         1 6IG      -0.407600
     25 C19         -4.1130     5.9800    -4.2380 c3         1 6IG       0.115700
     26 C20          0.0100     0.1210    -2.4640 c3         1 6IG       0.242800
     27 C21         -1.0000     0.2160    -3.6080 c3         1 6IG      -0.054100
     28 C22          1.0750     0.2490    -7.3410 ca         1 6IG      -0.127000
     29 C23          0.7580    -0.9540    -6.7380 ca         1 6IG      -0.124500
     30 C24          0.0860    -0.9630    -5.5300 ca         1 6IG      -0.122000
     31 C25         -0.2670     0.2280    -4.9260 ca         1 6IG      -0.084300
     32 C26          0.0440     1.4300    -5.5320 ca         1 6IG      -0.122000
     33 C27          0.7200     1.4410    -6.7380 ca         1 6IG      -0.124500
     34 HN3         -1.6960    -0.1290    -1.1840 hn         1 6IG       0.452800
     35 HN41         3.8880     0.8670     1.0750 hn         1 6IG       0.443300
     36 HN42         3.8890    -0.8670     1.0790 hn         1 6IG       0.443300
     37 H51          0.0300    -0.5080     4.4690 hc         1 6IG       0.063200
     38 H52         -1.5510    -0.5080     3.6760 hc         1 6IG       0.063200
     39 H61         -0.1440     1.6810     5.0120 hc         1 6IG       0.039367
     40 H62         -1.8470     1.5560     4.5510 hc         1 6IG       0.039367
     41 H63         -0.6520     2.1180     3.3740 hc         1 6IG       0.039367
     42 H8          -4.7550    -1.9900     2.1500 ha         1 6IG       0.132000
     43 H11         -2.3420     1.9970     0.5370 ha         1 6IG       0.146000
     44 H131        -6.8070    -0.7230     0.6550 hc         1 6IG       0.052200
     45 H132        -6.7460    -0.4530     2.4060 hc         1 6IG       0.052200
     46 H141        -8.0770     1.2660     1.0090 hc         1 6IG       0.056700
     47 H142        -6.8750     1.9200     2.1420 hc         1 6IG       0.056700
     48 H151        -6.2320     1.2780    -0.7520 h1         1 6IG       0.049200
     49 H152        -6.7680     2.9040    -0.1970 h1         1 6IG       0.049200
     50 H161        -3.1950     3.0830    -0.4130 h1         1 6IG       0.045200
     51 H162        -4.1070     1.9400    -1.4090 h1         1 6IG       0.045200
     52 H171        -5.9270     3.5720    -1.6550 hc         1 6IG       0.063700
     53 H172        -5.0740     4.7070    -0.6010 hc         1 6IG       0.063700
     54 H181        -4.1210     3.6780    -3.2980 h1         1 6IG       0.025200
     55 H182        -3.1670     4.7100    -2.2240 h1         1 6IG       0.025200
     56 H191        -4.1740     5.1850    -4.9700 h1         1 6IG       0.031367
     57 H192        -4.5490     6.8830    -4.6480 h1         1 6IG       0.031367
     58 H193        -3.0750     6.1620    -3.9880 h1         1 6IG       0.031367
     59 H201         0.6240     1.0130    -2.4490 h1         1 6IG       0.056700
     60 H202         0.6400    -0.7480    -2.6090 h1         1 6IG       0.056700
     61 H211        -1.5760     1.1280    -3.5070 hc         1 6IG       0.050200
     62 H212        -1.6670    -0.6370    -3.5730 hc         1 6IG       0.050200
     63 H22          1.6030     0.2570    -8.2870 ha         1 6IG       0.130000
     64 H23          1.0360    -1.8880    -7.2110 ha         1 6IG       0.130500
     65 H24         -0.1630    -1.9050    -5.0560 ha         1 6IG       0.130500
     66 H26         -0.2340     2.3640    -5.0590 ha         1 6IG       0.130500
     67 H27          0.9670     2.3830    -7.2130 ha         1 6IG       0.130500
     68 H7          -2.3040    -2.0410     1.9660 ha         1 6IG       0.137000
@<TRIPOS>BOND
     1     1     2 ar
     2     1     6 ar
     3     1     7 1
     4     2     3 ar
     5     3     4 ar
     6     3     8 1
     7     4     5 ar
     8     5     6 ar
     9     5     9 1
    10     6    16 1
    11     7    26 1
    12     7    34 1
    13     8    35 1
    14     8    36 1
    15     9    10 1
    16     9    37 1
    17     9    38 1
    18    10    39 1
    19    10    40 1
    20    10    41 1
    21    11    12 ar
    22    11    16 ar
    23    11    68 1
    24    12    13 ar
    25    12    42 1
    26    13    14 ar
    27    13    17 1
    28    14    15 ar
    29    14    20 1
    30    15    16 ar
    31    15    43 1
    32    17    18 1
    33    17    44 1
    34    17    45 1
    35    18    19 1
    36    18    46 1
    37    18    47 1
    38    19    20 1
    39    19    48 1
    40    19    49 1
    41    20    21 1
    42    21    22 1
    43    21    50 1
    44    21    51 1
    45    22    23 1
    46    22    52 1
    47    22    53 1
    48    23    24 1
    49    23    54 1
    50    23    55 1
    51    24    25 1
    52    25    56 1
    53    25    57 1
    54    25    58 1
    55    26    27 1
    56    26    59 1
    57    26    60 1
    58    27    31 1
    59    27    61 1
    60    27    62 1
    61    28    29 ar
    62    28    33 ar
    63    28    63 1
    64    29    30 ar
    65    29    64 1
    66    30    31 ar
    67    30    65 1
    68    31    32 ar
    69    32    33 ar
    70    32    66 1
    71    33    67 1
@<TRIPOS>SUBSTRUCTURE
     1 6IG         1 TEMP              0 ****  ****    0 ROOT
