@<TRIPOS>MOLECULE
molecule
   52    54     1     0     0
SMALL
bcc


@<TRIPOS>ATOM
      1 C1           0.0000     0.0000     0.0000 ca         1 6IN       0.147100
      2 C2           1.3910     0.0000     0.0000 ca         1 6IN      -0.183000
      3 C3           2.0920     0.0000     1.1860 ca         1 6IN      -0.091000
      4 C4           1.4090     0.0000     2.3960 ca         1 6IN      -0.072200
      5 C5           0.0040    -0.0010     2.4000 ca         1 6IN      -0.047800
      6 C6          -0.6970    -0.0010     1.1920 ca         1 6IN      -0.166000
      7 N10          1.8180    -0.0000     3.7140 na         1 6IN      -0.038400
      8 C7           0.7270    -0.0020     4.5380 cc         1 6IN       0.006700
      9 C12         -0.3980    -0.0070     3.8080 cd         1 6IN      -0.234400
     10 C13          3.2120    -0.0010     4.1620 c3         1 6IN       0.094600
     11 C14          3.6900    -1.4220     4.3150 ca         1 6IN      -0.126300
     12 C17          4.2770    -2.0720     3.2460 ca         1 6IN      -0.109000
     13 C18          4.7160    -3.3750     3.3850 ca         1 6IN      -0.125000
     14 C19          4.5690    -4.0270     4.5950 ca         1 6IN      -0.112000
     15 C20          3.9840    -3.3760     5.6650 ca         1 6IN      -0.125000
     16 C21          3.5480    -2.0710     5.5260 ca         1 6IN      -0.109000
     17 C27          0.7810    -0.0020     6.0440 c3         1 6IN      -0.044900
     18 C32         -1.8100    -0.0160     4.3360 c3         1 6IN      -0.048200
     19 C34         -2.2720    -1.4390     4.5090 c          1 6IN       0.455100
     20 N37         -3.5120    -1.6930     4.9730 nz         1 6IN      -0.687400
     21 O40         -1.5300    -2.3560     4.2290 o          1 6IN      -0.371100
     22 O41         -0.6770    -0.0000    -1.1800 os         1 6IN      -0.290900
     23 C42          0.3030     0.0010    -2.2190 c3         1 6IN       0.095400
     24 C43         -0.3950     0.0010    -3.5790 c3         1 6IN      -0.065400
     25 C46          0.6540     0.0020    -4.6920 c3         1 6IN      -0.185400
     26 C49         -0.0340     0.0020    -6.0330 c          1 6IN       0.892600
     27 O52          0.6930     0.0030    -7.1610 o          1 6IN      -0.844300
     28 O54         -1.2390     0.0020    -6.0930 o          1 6IN      -0.844300
     29 H2           1.9280     0.0010    -0.9410 ha         1 6IN       0.173000
     30 H3           3.1750     0.0000     1.1750 ha         1 6IN       0.132000
     31 H6          -1.7800    -0.0010     1.1900 ha         1 6IN       0.126000
     32 H131         3.8260     0.5100     3.4310 h1         1 6IN       0.071200
     33 H132         3.2850     0.5100     5.1150 h1         1 6IN       0.071200
     34 H17          4.3920    -1.5600     2.2980 ha         1 6IN       0.129000
     35 H18          5.1750    -3.8850     2.5470 ha         1 6IN       0.137000
     36 H19          4.9110    -5.0490     4.7040 ha         1 6IN       0.137000
     37 H20          3.8710    -3.8870     6.6140 ha         1 6IN       0.137000
     38 H21          3.0900    -1.5610     6.3650 ha         1 6IN       0.129000
     39 H271        -0.0350     0.5930     6.4350 hc         1 6IN       0.051367
     40 H272         1.7240     0.4180     6.3720 hc         1 6IN       0.051367
     41 H273         0.6930    -1.0190     6.4090 hc         1 6IN       0.051367
     42 H321        -2.4610     0.4920     3.6350 hc         1 6IN       0.086700
     43 H322        -1.8410     0.4920     5.2920 hc         1 6IN       0.086700
     44 H371        -3.6130    -1.3000     5.8870 hn         1 6IN       0.469467
     45 H372        -3.6550    -2.6830     5.0180 hn         1 6IN       0.469467
     46 H421         0.9220     0.8850    -2.1300 h1         1 6IN       0.033700
     47 H422         0.9220    -0.8840    -2.1320 h1         1 6IN       0.033700
     48 H431        -1.0150    -0.8830    -3.6680 hc         1 6IN       0.062200
     49 H432        -1.0150     0.8860    -3.6670 hc         1 6IN       0.062200
     50 H461         1.2730     0.8870    -4.6040 hc         1 6IN       0.029200
     51 H462         1.2740    -0.8820    -4.6050 hc         1 6IN       0.029200
     52 H373        -4.1890    -1.2970     4.3510 hn         1 6IN       0.469467
@<TRIPOS>BOND
     1     1     2 ar  
     2     1     6 ar  
     3     1    22 1   
     4     2     3 ar  
     5     2    29 1   
     6     3     4 ar  
     7     3    30 1   
     8     4     5 ar  
     9     4     7 1   
    10     5     6 ar  
    11     5     9 1   
    12     6    31 1   
    13     7     8 1   
    14     7    10 1   
    15     8     9 2   
    16     8    17 1   
    17     9    18 1   
    18    10    11 1   
    19    10    32 1   
    20    10    33 1   
    21    11    12 ar  
    22    11    16 ar  
    23    12    13 ar  
    24    12    34 1   
    25    13    14 ar  
    26    13    35 1   
    27    14    15 ar  
    28    14    36 1   
    29    15    16 ar  
    30    15    37 1   
    31    16    38 1   
    32    17    39 1   
    33    17    40 1   
    34    17    41 1   
    35    18    19 1   
    36    18    42 1   
    37    18    43 1   
    38    19    20 1   
    39    19    21 2   
    40    20    44 1   
    41    20    45 1   
    42    22    23 1   
    43    23    24 1   
    44    23    46 1   
    45    23    47 1   
    46    24    25 1   
    47    24    48 1   
    48    24    49 1   
    49    25    26 1   
    50    25    50 1   
    51    25    51 1   
    52    26    27 1   
    53    26    28 1   
    54    52    20 1   
@<TRIPOS>SUBSTRUCTURE
     1 6IN         1 TEMP              0 ****  ****    0 ROOT
