@<TRIPOS>MOLECULE
6IP
   33    35     1     0     0
SMALL
bcc


@<TRIPOS>ATOM
      1 N1           0.0000     0.0000     0.0000 nv         1 6IP      -0.670500
      2 C2           1.4170     0.0000     0.0000 ca         1 6IP       0.491200
      3 C3           2.0510     0.0000     1.2320 ca         1 6IP      -0.229300
      4 C4           3.4410     0.0010     1.2480 ca         1 6IP      -0.065000
      5 C5           4.1460     0.0030     0.0490 ca         1 6IP      -0.218300
      6 C6           3.4100     0.0030    -1.1160 ca         1 6IP       0.381600
      7 C7           4.1410     0.0050    -2.4350 c3         1 6IP      -0.076700
      8 C8           4.4360    -1.4110    -2.9680 c3         1 6IP       0.041900
      9 C9           3.2150    -2.2310    -3.2210 ca         1 6IP      -0.065300
     10 C10          2.6080    -2.1920    -4.4760 ca         1 6IP      -0.122000
     11 C11          1.4630    -2.9530    -4.7400 ca         1 6IP      -0.039000
     12 C12          0.9250    -3.7630    -3.7210 ca         1 6IP      -0.095800
     13 C13         -0.1920    -4.6400    -3.6380 cc         1 6IP      -0.164200
     14 C14         -0.2180    -5.1660    -2.3660 cd         1 6IP      -0.288100
     15 N15          0.8390    -4.6420    -1.6720 na         1 6IP       0.362600
     16 C16          1.5550    -3.7820    -2.4750 ca         1 6IP      -0.231200
     17 C17          2.7000    -3.0280    -2.1950 ca         1 6IP      -0.101000
     18 N18          2.0670     0.0010    -1.1860 nb         1 6IP      -0.564000
     19 HN11        -0.5000    -0.8550     0.1430 hn         1 6IP       0.275800
     20 HN12        -0.5000     0.8500    -0.1680 hn         1 6IP       0.275800
     21 H3           1.4810    -0.0010     2.1530 ha         1 6IP       0.122000
     22 H4           3.9740     0.0010     2.1920 ha         1 6IP       0.102000
     23 H5           5.2290     0.0040     0.0320 ha         1 6IP       0.121000
     24 H71          3.5380     0.5310    -3.1650 hc         1 6IP       0.023200
     25 H72          5.0790     0.5320    -2.3120 hc         1 6IP       0.023200
     26 H81          4.9900    -1.3210    -3.8940 hc         1 6IP       0.012200
     27 H82          5.0550    -1.9290    -2.2440 hc         1 6IP       0.012200
     28 H10          3.0290    -1.5690    -5.2560 ha         1 6IP       0.104000
     29 H11          0.9960    -2.9190    -5.7170 ha         1 6IP       0.100000
     30 H13         -0.8960    -4.8560    -4.4330 ha         1 6IP       0.126000
     31 H14         -0.9830    -5.8190    -1.9630 h4         1 6IP       0.141000
     32 HN15         1.0610    -4.8540    -0.7190 hn         1 6IP       0.109700
     33 H17          3.3180    -3.2780    -1.3410 ha         1 6IP       0.106000
@<TRIPOS>BOND
     1     1     2 1   
     2     1    19 1   
     3     1    20 1   
     4     2     3 ar  
     5     2    18 ar  
     6     3     4 ar  
     7     3    21 1   
     8     4     5 ar  
     9     4    22 1   
    10     5     6 ar  
    11     5    23 1   
    12     6     7 1   
    13     6    18 ar  
    14     7     8 1   
    15     7    24 1   
    16     7    25 1   
    17     8     9 1   
    18     8    26 1   
    19     8    27 1   
    20     9    10 ar  
    21     9    17 ar  
    22    10    11 ar  
    23    10    28 1   
    24    11    12 ar  
    25    11    29 1   
    26    12    13 1   
    27    12    16 ar  
    28    13    14 2   
    29    13    30 1   
    30    14    15 1   
    31    14    31 1   
    32    15    16 1   
    33    15    32 1   
    34    16    17 ar  
    35    17    33 1   
@<TRIPOS>SUBSTRUCTURE
     1 6IP         1 TEMP              0 ****  ****    0 ROOT
