@<TRIPOS>MOLECULE
molecule
   57    59     1     0     0
SMALL
bcc


@<TRIPOS>ATOM
      1 C1           0.0000     0.0000     0.0000 c          1 6IR       0.820500
      2 N1           1.3410     0.0000     0.0000 ns         1 6IR      -0.594900
      3 O1          -0.6630    -0.0000    -1.0190 o          1 6IR      -0.680500
      4 S1           1.4380     2.4880     2.2100 ss         1 6IR      -0.357200
      5 C2           1.8200     0.0000     1.3910 c3         1 6IR       0.092700
      6 N2          -0.5420    -0.0060     1.2260 ns         1 6IR      -0.598900
      7 O2          -5.0380     4.3890     4.6370 o          1 6IR      -0.600100
      8 S2         -10.1060     8.0050     6.0850 sy         1 6IR       1.417200
      9 C3           2.6770     1.2580     1.6320 c3         1 6IR       0.017700
     10 N3          -4.5370     5.9730     6.1080 ns         1 6IR      -0.483100
     11 O3         -10.9360     6.9070     6.4360 o          1 6IR      -0.610800
     12 C4           0.5350    -0.0010     2.2280 c3         1 6IR       0.092700
     13 N4         -10.4790     8.3910     4.5170 n7         1 6IR      -0.911100
     14 O4         -10.0900     9.2300     6.8050 o          1 6IR      -0.610800
     15 C5           0.4000     1.2550     3.1110 c3         1 6IR       0.029400
     16 N5         -11.3190     6.8200     1.2360 nz         1 6IR      -0.808600
     17 C6          -1.0590     1.7100     3.1890 c3         1 6IR      -0.062400
     18 C7          -1.1770     2.8780     4.1690 c3         1 6IR      -0.086400
     19 C8          -2.6360     3.3330     4.2460 c3         1 6IR      -0.067400
     20 C9          -2.7550     4.5020     5.2260 c3         1 6IR      -0.155400
     21 C10         -4.1920     4.9500     5.3020 c          1 6IR       0.665100
     22 C11         -5.8520     6.4530     6.1070 ca         1 6IR       0.126600
     23 C12         -6.0990     7.8080     6.2810 ca         1 6IR      -0.166500
     24 C13         -7.3970     8.2780     6.2740 ca         1 6IR      -0.016500
     25 C14         -6.9120     5.5740     5.9260 ca         1 6IR      -0.166500
     26 C15         -8.2080     6.0500     5.9250 ca         1 6IR      -0.016500
     27 C16         -8.4510     7.4010     6.0930 ca         1 6IR      -0.353500
     28 C27        -10.5430     7.3390     3.5000 c3         1 6IR       0.221800
     29 C28        -11.2550     7.8740     2.2560 c3         1 6IR       0.080800
     30 H1           1.9220    -0.0010    -0.8150 hn         1 6IR       0.365500
     31 H2           2.3990    -0.8940     1.5890 h1         1 6IR       0.071700
     32 H3          -1.5230    -0.0070     1.4270 hn         1 6IR       0.361500
     33 H4           3.4200     1.0740     2.3990 h1         1 6IR       0.084200
     34 H5           3.1410     1.5870     0.7100 h1         1 6IR       0.084200
     35 H6          -3.8590     6.3740     6.7260 hn         1 6IR       0.339500
     36 H7           0.4840    -0.8960     2.8360 h1         1 6IR       0.070700
     37 H8         -10.6810     9.3390     4.2700 hn         1 6IR       0.462800
     38 H9           0.8030     1.0690     4.0990 h1         1 6IR       0.078700
     39 H10        -10.3910     6.5340     0.9920 hn         1 6IR       0.461800
     40 H11        -11.8250     6.0360     1.5980 hn         1 6IR       0.461800
     41 H13         -1.6760     0.8880     3.5310 hc         1 6IR       0.058700
     42 H14         -1.3910     2.0270     2.2080 hc         1 6IR       0.058700
     43 H15         -0.5600     3.7000     3.8270 hc         1 6IR       0.051700
     44 H16         -0.8450     2.5620     5.1500 hc         1 6IR       0.051700
     45 H17         -2.9680     3.6500     3.2640 hc         1 6IR       0.058200
     46 H18         -3.2530     2.5110     4.5880 hc         1 6IR       0.058200
     47 H19         -2.4230     4.1860     6.2070 hc         1 6IR       0.070700
     48 H20         -2.1390     5.3240     4.8840 hc         1 6IR       0.070700
     49 H21         -5.2740     8.4960     6.4230 ha         1 6IR       0.164000
     50 H22         -7.5910     9.3350     6.4100 ha         1 6IR       0.150000
     51 H23         -6.7230     4.5150     5.7940 ha         1 6IR       0.164000
     52 H24         -9.0360     5.3660     5.7840 ha         1 6IR       0.150000
     53 H25        -11.0900     6.4900     3.8920 h1         1 6IR       0.068200
     54 H26         -9.5380     7.0300     3.2360 h1         1 6IR       0.068200
     55 H27        -10.7080     8.7230     1.8640 hx         1 6IR       0.118700
     56 H28        -12.2590     8.1830     2.5200 hx         1 6IR       0.118700
     57 H53        -11.7850     7.1700     0.4220 hn         1 6IR       0.461800
@<TRIPOS>BOND
     1    29    16 1   
     2    29    28 1   
     3    28    13 1   
     4    13     8 1   
     5    14     8 2   
     6     8    11 2   
     7     8    27 1   
     8    24    27 ar  
     9    24    23 ar  
    10    27    26 ar  
    11    23    22 ar  
    12    26    25 ar  
    13     7    21 2   
    14    22    25 ar  
    15    22    10 1   
    16    21    10 1   
    17    21    20 1   
    18    20    19 1   
    19    19    18 1   
    20    18    17 1   
    21    17    15 1   
    22    15    12 1   
    23    15     4 1   
    24     6    12 1   
    25     6     1 1   
    26    12     5 1   
    27     4     9 1   
    28     1     3 2   
    29     1     2 1   
    30     5     9 1   
    31     5     2 1   
    32     2    30 1   
    33     5    31 1   
    34     6    32 1   
    35     9    33 1   
    36     9    34 1   
    37    10    35 1   
    38    12    36 1   
    39    13    37 1   
    40    15    38 1   
    41    16    39 1   
    42    16    40 1   
    43    17    41 1   
    44    17    42 1   
    45    18    43 1   
    46    18    44 1   
    47    19    45 1   
    48    19    46 1   
    49    20    47 1   
    50    20    48 1   
    51    23    49 1   
    52    24    50 1   
    53    25    51 1   
    54    26    52 1   
    55    28    53 1   
    56    28    54 1   
    57    29    55 1   
    58    29    56 1   
    59    57    16 1   
@<TRIPOS>SUBSTRUCTURE
     1 6IR         1 TEMP              0 ****  ****    0 ROOT
