@<TRIPOS>MOLECULE
6J0
   43    45     1     0     0
SMALL
bcc


@<TRIPOS>ATOM
      1 N01          0.0000     0.0000     0.0000 nc         1 6J0      -0.618000
      2 C02          1.3050     0.0000     0.0000 cd         1 6J0       0.237400
      3 N03          1.7370     0.0000     1.2890 na         1 6J0       0.293300
      4 C04          0.6210    -0.0010     2.0870 cd         1 6J0      -0.412600
      5 C05         -0.4450    -0.0010     1.2660 cc         1 6J0       0.321200
      6 C1'         13.3180    -0.0000    -1.9850 ca         1 6J0      -0.067300
      7 N11          3.3210    -0.0020     3.0170 nb         1 6J0      -0.690000
      8 C12          3.0640    -0.0000     1.7190 ca         1 6J0       0.583500
      9 N13          4.0330     0.0000     0.8190 nb         1 6J0      -0.710000
     10 C14          5.3080    -0.0000     1.1950 ca         1 6J0       0.567200
     11 C15          5.6110    -0.0010     2.5590 ca         1 6J0      -0.450600
     12 C16          4.5680    -0.0020     3.4650 ca         1 6J0       0.514200
     13 N17          6.3200     0.0000     0.2510 nu         1 6J0      -0.485900
     14 C18          7.7210    -0.0000     0.6780 c3         1 6J0       0.153800
     15 C19          8.6310    -0.0000    -0.5530 c3         1 6J0       0.135800
     16 C2'         13.7430     1.1970    -2.5280 ca         1 6J0      -0.132000
     17 N20         10.0360    -0.0000    -0.1240 n7         1 6J0      -0.580200
     18 C21         10.9400    -0.0010    -1.2820 c3         1 6J0       0.145800
     19 C22         12.3900    -0.0010    -0.7970 c3         1 6J0       0.028900
     20 C3'         14.5950     1.1960    -3.6200 ca         1 6J0       0.108900
     21 C4'         15.0200    -0.0030    -4.1650 ca         1 6J0      -0.134000
     22 C5'         14.5930    -1.2000    -3.6190 ca         1 6J0      -0.070000
     23 C6'         13.7380    -1.1980    -2.5340 ca         1 6J0      -0.109000
     24 F7'         15.0110     2.3660    -4.1530 f          1 6J0      -0.128900
     25 H02          1.9380     0.0010    -0.8790 h5         1 6J0       0.034100
     26 H04          0.6020    -0.0020     3.1700 h4         1 6J0       0.166000
     27 H05         -1.4840    -0.0020     1.5740 h4         1 6J0       0.003100
     28 H15          6.6400    -0.0010     2.8980 ha         1 6J0       0.137000
     29 H16          4.7680    -0.0030     4.5300 h4         1 6J0      -0.014900
     30 HN17         6.0950    -0.0010    -0.7240 hn         1 6J0       0.303800
     31 H18          7.9170    -0.8850     1.2720 h1         1 6J0       0.025200
     32 H18A         7.9180     0.8840     1.2720 h1         1 6J0       0.025200
     33 H19          8.4350     0.8840    -1.1470 h1         1 6J0       0.014200
     34 H19A         8.4350    -0.8850    -1.1460 h1         1 6J0       0.014200
     35 H2'         13.4100     2.1350    -2.1010 ha         1 6J0       0.121000
     36 HN20        10.2130     0.8090     0.4380 hn         1 6J0       0.254800
     37 H21         10.7590    -0.8850    -1.8810 h1         1 6J0       0.012700
     38 H21A        10.7600     0.8840    -1.8810 h1         1 6J0       0.012700
     39 H22         12.5710    -0.8860    -0.1980 hc         1 6J0       0.025700
     40 H22A        12.5710     0.8830    -0.1970 hc         1 6J0       0.025700
     41 H4'         15.6880    -0.0040    -5.0180 ha         1 6J0       0.120000
     42 H5'         14.9240    -2.1390    -4.0470 ha         1 6J0       0.108000
     43 H6'         13.4050    -2.1360    -2.1060 ha         1 6J0       0.112000
@<TRIPOS>BOND
     1     1     2 2   
     2     1     5 1   
     3     2     3 1   
     4     2    25 1   
     5     3     4 1   
     6     3     8 1   
     7     4     5 2   
     8     4    26 1   
     9     5    27 1   
    10     6    16 ar  
    11     6    19 1   
    12     6    23 ar  
    13     7     8 ar  
    14     7    12 ar  
    15     8     9 ar  
    16     9    10 ar  
    17    10    11 ar  
    18    10    13 1   
    19    11    12 ar  
    20    11    28 1   
    21    12    29 1   
    22    13    14 1   
    23    13    30 1   
    24    14    15 1   
    25    14    31 1   
    26    14    32 1   
    27    15    17 1   
    28    15    33 1   
    29    15    34 1   
    30    16    20 ar  
    31    16    35 1   
    32    17    18 1   
    33    17    36 1   
    34    18    19 1   
    35    18    37 1   
    36    18    38 1   
    37    19    39 1   
    38    19    40 1   
    39    20    21 ar  
    40    20    24 1   
    41    21    22 ar  
    42    21    41 1   
    43    22    23 ar  
    44    22    42 1   
    45    23    43 1   
@<TRIPOS>SUBSTRUCTURE
     1 6J0         1 TEMP              0 ****  ****    0 ROOT
