@<TRIPOS>MOLECULE
molecule
   20    20     1     0     0
SMALL
bcc


@<TRIPOS>ATOM
      1 O10          0.0000     0.0000     0.0000 o          1 6J1      -0.186500
      2 C01          1.2020     0.0020    -4.9810 c3         1 6J1      -0.046800
      3 C02          1.9580     0.0020    -3.6770 ca         1 6J1      -0.103300
      4 C03          3.3410     0.0010    -3.6810 ca         1 6J1      -0.025000
      5 C04          4.0360     0.0020    -2.4870 ca         1 6J1      -0.195200
      6 C05          3.3450     0.0010    -1.2840 ca         1 6J1       0.222100
      7 C06          1.9580     0.0010    -1.2830 ca         1 6J1      -0.195200
      8 C07          1.2680     0.0060    -2.4790 ca         1 6J1      -0.025000
      9 N08          1.2180     0.0000     0.0000 no         1 6J1       0.298200
     10 O09          1.8270     0.0000     1.0550 o          1 6J1      -0.186500
     11 N12          5.5160     0.0010    -2.4920 no         1 6J1       0.298200
     12 O13          6.1220     0.0010    -3.5490 o          1 6J1      -0.186500
     13 O14          6.1290     0.0010    -1.4390 o          1 6J1      -0.186500
     14 H011         1.8740     0.2700    -5.7870 hc         1 6J1       0.058367
     15 H013         0.3950     0.7230    -4.9300 hc         1 6J1       0.058367
     16 H012         0.7950    -0.9850    -5.1620 hc         1 6J1       0.058367
     17 H031         3.8790     0.0020    -4.6210 ha         1 6J1       0.180000
     18 H071         0.1840     0.0060    -2.4790 ha         1 6J1       0.180000
     19 H111         4.2040     0.8830     0.1570 ho         1 6J1       0.454000
     20 O11          4.0270    -0.0040    -0.1080 oh         1 6J1      -0.472100
@<TRIPOS>BOND
     1    20     6 1   
     2     1     9 1   
     3    13    11 1   
     4     6     7 ar  
     5     6     5 ar  
     6     9     7 1   
     7     9    10 1   
     8    11    12 1   
     9    11     5 1   
    10     7     8 ar  
    11     5     4 ar  
    12     8     3 ar  
    13     4     3 ar  
    14     3     2 1   
    15     2    14 1   
    16     2    15 1   
    17     2    16 1   
    18     4    17 1   
    19     8    18 1   
    20    20    19 1   
@<TRIPOS>SUBSTRUCTURE
     1 6J1         1 TEMP              0 ****  ****    0 ROOT
