@<TRIPOS>MOLECULE
molecule
   55    57     1     0     0
SMALL
bcc


@<TRIPOS>ATOM
      1 C3I          0.0000     0.0000     0.0000 c          1 6J2       0.893600
      2 O3I          1.2090     0.0000     0.0000 o          1 6J2      -0.865800
      3 C1I         -0.7530     0.0000     1.3060 c3         1 6J2       0.135100
      4 C2I         -1.5360     1.3080     1.4420 c3         1 6J2      -0.085100
      5 O3P          0.1710    -0.1170     2.3890 os         1 6J2      -0.593200
      6 P            0.1370    -1.3350     3.4410 p5         1 6J2       1.371800
      7 O1P         -1.2090    -1.4250     4.0500 o          1 6J2      -0.841000
      8 O2P          0.4740    -2.7130     2.6800 o          1 6J2      -0.841000
      9 O5'          1.2310    -1.0780     4.5950 os         1 6J2      -0.598200
     10 C5'          1.3750    -1.9270     5.7350 c3         1 6J2       0.209400
     11 C4'          2.5000    -1.3990     6.6270 c3         1 6J2       0.127100
     12 O4'          2.1320    -0.1220     7.1520 oh         1 6J2      -0.616800
     13 C3'          2.7380    -2.3740     7.7810 c3         1 6J2       0.138100
     14 O3'          3.1060    -3.6520     7.2560 oh         1 6J2      -0.590800
     15 C2'          3.8630    -1.8450     8.6720 c3         1 6J2       0.120100
     16 O2'          3.4950    -0.5690     9.1970 oh         1 6J2      -0.590800
     17 C1'          4.1010    -2.8210     9.8260 c3         1 6J2       0.017300
     18 N10          5.1780    -2.3150    10.6800 na         1 6J2      -0.080100
     19 C9A          4.8790    -1.4890    11.7430 ca         1 6J2       0.119700
     20 C9           3.5570    -1.1430    11.9980 ca         1 6J2      -0.172000
     21 C8           3.2520    -0.3140    13.0630 ca         1 6J2       0.176100
     22 O8M          1.9620     0.0220    13.3080 oh         1 6J2      -0.496100
     23 C7           4.2650     0.1790    13.8890 ca         1 6J2      -0.220000
     24 C6           5.5660    -0.1460    13.6580 ca         1 6J2      -0.049000
     25 C5A          5.8990    -0.9880    12.5810 ca         1 6J2      -0.168000
     26 C5           7.2490    -1.3270    12.3390 cc         1 6J2       0.052000
     27 C10          6.4690    -2.6670    10.4220 cd         1 6J2       0.196700
     28 N1           6.7880    -3.4640     9.4100 nc         1 6J2      -0.455400
     29 C4A          7.5460    -2.1550    11.2740 cd         1 6J2      -0.278600
     30 C4           8.9230    -2.5620    10.9560 c          1 6J2       0.728100
     31 O4           9.8680    -2.1780    11.6190 o          1 6J2      -0.640500
     32 N3           9.0950    -3.3850     9.8950 ns         1 6J2      -0.591500
     33 C2           8.0500    -3.8020     9.1650 c          1 6J2       0.853900
     34 O2           8.2710    -4.5440     8.2220 o          1 6J2      -0.610500
     35 H16         -1.4410    -0.8370     1.3260 h1         1 6J2       0.038700
     36 H17         -0.8730     2.1460     1.2690 hc         1 6J2       0.014700
     37 H18         -2.3380     1.3260     0.7140 hc         1 6J2       0.014700
     38 H19         -1.9530     1.3770     2.4400 hc         1 6J2       0.014700
     39 H21          0.4470    -1.9410     6.2940 h1         1 6J2       0.035700
     40 H22          1.6140    -2.9320     5.4080 h1         1 6J2       0.035700
     41 H23          3.4070    -1.3010     6.0430 h1         1 6J2       0.050700
     42 H24          2.3270     0.5470     6.5160 ho         1 6J2       0.419000
     43 H25          1.8310    -2.4710     8.3650 h1         1 6J2       0.046700
     44 H26          2.4420    -4.2850     7.4760 ho         1 6J2       0.405000
     45 H27          4.7700    -1.7480     8.0890 h1         1 6J2       0.068700
     46 H28          4.0840     0.0890     8.8660 ho         1 6J2       0.410000
     47 H29          4.3800    -3.7890     9.4290 h1         1 6J2       0.088700
     48 H30          3.1940    -2.9180    10.4100 h1         1 6J2       0.088700
     49 H31          2.7600    -1.5810    11.4090 ha         1 6J2       0.183000
     50 H32          1.7250    -0.2530    14.1780 ho         1 6J2       0.421000
     51 H33          4.0130     0.8280    14.7190 ha         1 6J2       0.137000
     52 H34          6.3440     0.2420    14.3040 ha         1 6J2       0.137000
     53 H35          8.0030    -1.1150    13.0870 ha         1 6J2       0.159000
     54 H37         10.0170    -3.6840     9.6480 hn         1 6J2       0.343500
     55 OXT         -0.6710     0.0120    -1.1620 o          1 6J2      -0.865800
@<TRIPOS>BOND
     1    34    33 2   
     2    32    33 1   
     3    32    30 1   
     4    33    28 1   
     5    31    30 2   
     6    30    29 1   
     7    28    27 2   
     8    29    27 1   
     9    29    26 2   
    10    27    18 1   
    11    26    25 1   
    12    18    17 1   
    13    18    19 1   
    14    12    11 1   
    15    25    19 ar  
    16    25    24 ar  
    17    17    15 1   
    18    19    20 ar  
    19    11    10 1   
    20    11    13 1   
    21    24    23 ar  
    22    20    21 ar  
    23    10     9 1   
    24    23    21 ar  
    25    21    22 1   
    26    14    13 1   
    27    13    15 1   
    28    15    16 1   
    29     7     6 1   
    30     9     6 1   
    31     6     8 1   
    32     6     5 1   
    33     5     3 1   
    34     3     4 1   
    35     3     1 1   
    36     1     2 1   
    37     3    35 1   
    38     4    36 1   
    39     4    37 1   
    40     4    38 1   
    41    10    39 1   
    42    10    40 1   
    43    11    41 1   
    44    12    42 1   
    45    13    43 1   
    46    14    44 1   
    47    15    45 1   
    48    16    46 1   
    49    17    47 1   
    50    17    48 1   
    51    20    49 1   
    52    22    50 1   
    53    23    51 1   
    54    24    52 1   
    55    26    53 1   
    56    32    54 1   
    57     1    55 1   
@<TRIPOS>SUBSTRUCTURE
     1 6J2         1 TEMP              0 ****  ****    0 ROOT
