@<TRIPOS>MOLECULE
molecule
   28    29     1     0     0
SMALL
bcc


@<TRIPOS>ATOM
      1 O01          0.0000     0.0000     0.0000 o          1 6J3      -0.831800
      2 C02          1.2160     0.0000     0.0000 c          1 6J3       0.899200
      3 O03          1.8890     0.0000     1.1670 o          1 6J3      -0.831800
      4 C04          1.9520    -0.0070    -1.2750 ca         1 6J3      -0.272900
      5 C05          3.3510     0.0720    -1.2920 ca         1 6J3      -0.028000
      6 C06          3.9940     0.0620    -2.5160 ca         1 6J3      -0.333300
      7 C07          3.2490    -0.0260    -3.6790 ca         1 6J3       0.429200
      8 N08          1.9330    -0.0980    -3.6430 nb         1 6J3      -0.785000
      9 C09          1.2650    -0.0980    -2.4980 ca         1 6J3       0.693200
     10 N10         -0.1160    -0.1840    -2.5080 nu         1 6J3      -0.746300
     11 C11         -0.8110    -0.1320    -3.7190 ca         1 6J3       0.194600
     12 C12         -2.1620    -0.4540    -3.7590 ca         1 6J3      -0.138300
     13 C13         -2.8800    -0.8580    -2.4980 c3         1 6J3      -0.052800
     14 C14         -2.8460    -0.4020    -4.9590 ca         1 6J3       0.051400
     15 Cl          -4.5350    -0.8030    -5.0120 cl         1 6J3      -0.148400
     16 C16         -2.1870    -0.0300    -6.1190 ca         1 6J3      -0.183000
     17 C17         -0.8430     0.2900    -6.0800 ca         1 6J3      -0.114000
     18 C18         -0.1550     0.2450    -4.8830 ca         1 6J3      -0.184000
     19 H051         3.8870     0.3730    -0.4000 ha         1 6J3       0.160000
     20 H061         5.0750     0.0000    -2.5590 ha         1 6J3       0.115000
     21 H071         3.7560    -0.0360    -4.6360 h4         1 6J3      -0.003900
     22 H101        -0.6160    -0.2980    -1.6480 hn         1 6J3       0.515800
     23 H133        -2.3910    -1.7210    -2.0650 hc         1 6J3       0.050033
     24 H131        -3.9090    -1.1050    -2.7320 hc         1 6J3       0.050033
     25 H132        -2.8580    -0.0370    -1.7910 hc         1 6J3       0.050033
     26 H161        -2.7250     0.0080    -7.0580 ha         1 6J3       0.121000
     27 H171        -0.3300     0.5820    -6.9880 ha         1 6J3       0.119000
     28 H181         0.8990     0.4960    -4.8540 ha         1 6J3       0.207000
@<TRIPOS>BOND
     1     1     2 1   
     2     5     6 ar  
     3     5     4 ar  
     4     2     4 1   
     5     2     3 1   
     6     6     7 ar  
     7     4     9 ar  
     8     7     8 ar  
     9     9     8 ar  
    10     9    10 1   
    11    10    11 1   
    12    11    18 ar  
    13    11    12 ar  
    14    13    12 1   
    15    18    17 ar  
    16    12    14 ar  
    17    17    16 ar  
    18    14    16 ar  
    19    14    15 1   
    20     5    19 1   
    21     6    20 1   
    22     7    21 1   
    23    10    22 1   
    24    13    23 1   
    25    13    24 1   
    26    13    25 1   
    27    16    26 1   
    28    17    27 1   
    29    18    28 1   
@<TRIPOS>SUBSTRUCTURE
     1 6J3         1 TEMP              0 ****  ****    0 ROOT
