@<TRIPOS>MOLECULE
molecule
   21    22     1     0     0
SMALL
bcc


@<TRIPOS>ATOM
      1 Cl1          0.0000     0.0000     0.0000 cl         1 6J5      -0.095400
      2 C2           1.7360     0.0000     0.0000 ca         1 6J5       0.001400
      3 C3           2.4270     0.0000     1.1960 ca         1 6J5      -0.084000
      4 C4           3.8110    -0.0000     1.1970 ca         1 6J5      -0.150000
      5 C5           4.5050     0.0020     0.0000 ca         1 6J5      -0.084000
      6 C6           3.8180     0.0020    -1.1980 ca         1 6J5      -0.209000
      7 C7           2.4310    -0.0050    -1.2030 ca         1 6J5       0.145100
      8 O8           1.7530    -0.0100    -2.3800 os         1 6J5      -0.340900
      9 C9           2.5340    -0.0150    -3.5780 c3         1 6J5       0.123100
     10 C10          1.6180    -0.0210    -4.7750 cc         1 6J5       0.344800
     11 N11          0.2720    -0.0220    -4.7560 na         1 6J5      -0.102400
     12 N12         -0.1240    -0.0270    -5.9840 nc         1 6J5      -0.221800
     13 N13          0.9080    -0.0290    -6.7530 nd         1 6J5      -0.029000
     14 N14          1.9770    -0.0210    -6.0350 nd         1 6J5      -0.379000
     15 H3           1.8860    -0.0010     2.1340 ha         1 6J5       0.152000
     16 H4           4.3520    -0.0000     2.1350 ha         1 6J5       0.142000
     17 H5           5.5880     0.0040     0.0030 ha         1 6J5       0.140000
     18 H6           4.3620     0.0000    -2.1350 ha         1 6J5       0.143000
     19 H9           3.1580     0.8690    -3.6060 h1         1 6J5       0.073700
     20 H9A          3.1590    -0.9000    -3.5980 h1         1 6J5       0.073700
     21 HN11        -0.3120    -0.0190    -3.9430 hn         1 6J5       0.357700
@<TRIPOS>BOND
     1     1     2 1   
     2     2     3 ar  
     3     2     7 ar  
     4     3     4 ar  
     5     4     5 ar  
     6     5     6 ar  
     7     6     7 ar  
     8     7     8 1   
     9     8     9 1   
    10     9    10 1   
    11    10    11 1   
    12    10    14 2   
    13    11    12 1   
    14    12    13 2   
    15    13    14 1   
    16     3    15 1   
    17     4    16 1   
    18     5    17 1   
    19     6    18 1   
    20     9    19 1   
    21     9    20 1   
    22    11    21 1   
@<TRIPOS>SUBSTRUCTURE
     1 6J5         1 TEMP              0 ****  ****    0 ROOT
