@<TRIPOS>MOLECULE
molecule
   32    34     1     0     0
SMALL
bcc


@<TRIPOS>ATOM
      1 CAN          0.0000     0.0000     0.0000 c3         1 6J6      -0.206400
      2 CAM          1.5190     0.0000     0.0000 c          1 6J6       0.580700
      3 OAO          2.1560     0.0000    -1.0310 o          1 6J6      -0.513100
      4 CAL          2.1760     0.0000     1.3180 ca         1 6J6      -0.248600
      5 CAS          3.5460     0.2510     1.4320 ca         1 6J6      -0.063000
      6 CAR          4.1400     0.2380     2.6800 ca         1 6J6       0.058100
      7 OAT          5.4730     0.4820     2.7990 oh         1 6J6      -0.516100
      8 CAQ          3.3770    -0.0220     3.8120 ca         1 6J6      -0.091000
      9 CAP          2.0240    -0.2680     3.7080 ca         1 6J6      -0.159000
     10 CAK          1.4060    -0.2570     2.4640 ca         1 6J6       0.175100
     11 OAJ          0.0750    -0.4870     2.3680 os         1 6J6      -0.325900
     12 CAI         -0.4530    -0.9440     1.1240 c3         1 6J6       0.206400
     13 CAC         -1.9580    -0.9580     1.1920 ca         1 6J6      -0.090300
     14 CAD         -2.6660    -1.9990     0.6160 ca         1 6J6      -0.142000
     15 CAE         -4.0490    -2.0140     0.6790 ca         1 6J6       0.093100
     16 OAH         -4.7450    -3.0360     0.1130 oh         1 6J6      -0.507100
     17 CAF         -4.7240    -0.9810     1.3210 ca         1 6J6       0.101100
     18 OAG         -6.0830    -0.9920     1.3850 oh         1 6J6      -0.509100
     19 CAA         -4.0100     0.0580     1.8960 ca         1 6J6      -0.154000
     20 CAB         -2.6290     0.0640     1.8340 ca         1 6J6      -0.096000
     21 H1          -0.3570     1.0010     0.2100 hc         1 6J6       0.088200
     22 H2          -0.3570    -0.3790    -0.9500 hc         1 6J6       0.088200
     23 H3           4.1110     0.5750     0.5660 ha         1 6J6       0.164000
     24 H4           5.9520    -0.3220     2.6810 ho         1 6J6       0.419000
     25 H5           3.8500    -0.0300     4.7870 ha         1 6J6       0.148000
     26 H6           1.4410    -0.4690     4.5990 ha         1 6J6       0.152000
     27 H7          -0.0870    -1.9440     0.9230 h1         1 6J6       0.060700
     28 H8          -2.1360    -2.8230     0.1540 ha         1 6J6       0.145000
     29 H9          -4.7090    -2.9590    -0.8260 ho         1 6J6       0.424000
     30 H10         -6.3550    -1.2250     2.2580 ho         1 6J6       0.425000
     31 H11         -4.5340     0.8620     2.3980 ha         1 6J6       0.147000
     32 H12         -2.0720     0.8770     2.2840 ha         1 6J6       0.148000
@<TRIPOS>BOND
     1     7     6 1   
     2     3     2 2   
     3     5     6 ar  
     4     5     4 ar  
     5     6     8 ar  
     6     2     4 1   
     7     2     1 1   
     8     4    10 ar  
     9     8     9 ar  
    10     1    12 1   
    11    10     9 ar  
    12    10    11 1   
    13    11    12 1   
    14    12    13 1   
    15    20    13 ar  
    16    20    19 ar  
    17    13    14 ar  
    18    19    17 ar  
    19    14    15 ar  
    20    17    15 ar  
    21    17    18 1   
    22    15    16 1   
    23     1    21 1   
    24     1    22 1   
    25     5    23 1   
    26     7    24 1   
    27     8    25 1   
    28     9    26 1   
    29    12    27 1   
    30    14    28 1   
    31    16    29 1   
    32    18    30 1   
    33    19    31 1   
    34    20    32 1   
@<TRIPOS>SUBSTRUCTURE
     1 6J6         1 TEMP              0 ****  ****    0 ROOT
