@<TRIPOS>MOLECULE
molecule
   36    39     1     0     0
SMALL
bcc


@<TRIPOS>ATOM
      1 Br           0.0000     0.0000     0.0000 br         1 6J7       0.005800
      2 C9           1.8910     0.0000     0.0000 cc         1 6J7       0.536700
      3 N4           2.6400     0.0000     1.0650 nc         1 6J7      -0.579000
      4 C8           3.9440     0.0010     0.6950 cc         1 6J7       0.313800
      5 C7           5.1680     0.0000     1.4040 c          1 6J7       0.623000
      6 O6           5.1840     0.0000     2.6240 o          1 6J7      -0.514500
      7 N3           6.3200    -0.0000     0.6960 ns         1 6J7      -0.466400
      8 C6           6.2900     0.0000    -0.6660 cc         1 6J7       0.463800
      9 N2           7.4750     0.0010    -1.3580 nz         1 6J7      -0.728600
     10 N1           5.1590    -0.0000    -1.3360 nd         1 6J7      -0.555100
     11 C5           3.9800     0.0000    -0.7030 cd         1 6J7       0.033800
     12 N            2.6760    -0.0060    -1.1180 na         1 6J7      -0.151900
     13 C4           2.2070    -0.0140    -2.5050 c3         1 6J7       0.222800
     14 C2           1.6760    -1.4230    -2.8740 c3         1 6J7       0.112100
     15 O4           2.3650    -1.9390    -4.0150 oh         1 6J7      -0.567800
     16 O5           1.1060     0.9150    -2.6600 os         1 6J7      -0.373600
     17 C3           0.2480     0.3280    -3.6360 c3         1 6J7       0.027100
     18 C           -1.1700     0.8580    -3.6970 c3         1 6J7       0.207400
     19 O1          -1.8220     0.1760    -4.7950 os         1 6J7      -0.549200
     20 C1           0.1990    -1.1670    -3.2030 c3         1 6J7       0.141100
     21 O3          -0.2940    -1.8950    -4.3330 os         1 6J7      -0.530200
     22 P           -1.7450    -1.4420    -4.9150 p5         1 6J7       1.568500
     23 O           -2.8260    -2.0440    -4.1040 o          1 6J7      -0.785300
     24 O2          -1.8880    -1.8990    -6.4520 oh         1 6J7      -0.701400
     25 H10          7.1980    -0.0010     1.1750 hn         1 6J7       0.353500
     26 H8           7.9850     0.8360    -1.1450 hn         1 6J7       0.480133
     27 H9           8.0170    -0.7980    -1.0930 hn         1 6J7       0.480133
     28 H7           3.0140     0.2590    -3.1730 h2         1 6J7       0.116700
     29 H3           1.7660    -2.0950    -2.0290 h1         1 6J7       0.072700
     30 HO4          2.6680    -2.8120    -3.8300 ho         1 6J7       0.426000
     31 H6           0.7070     0.4060    -4.6140 h1         1 6J7       0.089700
     32 H1          -1.1580     1.9260    -3.8810 h1         1 6J7       0.082700
     33 H           -1.6860     0.6420    -2.7700 h1         1 6J7       0.082700
     34 H5          -0.4310    -1.3040    -2.3330 h1         1 6J7       0.094700
     35 H2          -2.6230    -2.4830    -6.5390 ho         1 6J7       0.488000
     36 H23          7.2880    -0.0370    -2.3400 hn         1 6J7       0.480133
@<TRIPOS>BOND
     1    23    22 2
     2    24    22 1
     3     9     8 1
     4    22    21 1
     5    22    19 1
     6    21    20 1
     7     8     7 1
     8     8    10 2
     9    19    18 1
    10     7     5 1
    11    20    14 1
    12    20    17 1
    13    10    11 1
    14    18    17 1
    15    14    15 1
    16    14    13 1
    17    17    16 1
    18     5     6 2
    19     5     4 1
    20    11     4 2
    21    11    12 1
    22    16    13 1
    23     4     3 1
    24    13    12 1
    25    12     2 1
    26     3     2 2
    27     2     1 1
    28     7    25 1
    29     9    26 1
    30     9    27 1
    31    13    28 1
    32    14    29 1
    33    15    30 1
    34    17    31 1
    35    18    32 1
    36    18    33 1
    37    20    34 1
    38    24    35 1
    39    36     9 1
@<TRIPOS>SUBSTRUCTURE
     1 6J7         1 TEMP              0 ****  ****    0 ROOT
