@<TRIPOS>MOLECULE
6J7
   36    39     1     0     0
SMALL
bcc


@<TRIPOS>ATOM
      1 Br           0.0000     0.0000     0.0000 br         1 6J7      -0.006200
      2 C9           1.8910     0.0000     0.0000 cc         1 6J7       0.320700
      3 N4           2.6400     0.0000     1.0650 nd         1 6J7      -0.467000
      4 C8           3.9440     0.0010     0.6950 cd         1 6J7       0.281800
      5 C7           5.1680     0.0000     1.4040 c          1 6J7       0.520000
      6 O6           5.1840     0.0000     2.6240 o          1 6J7      -0.560500
      7 N3           6.3200    -0.0000     0.6960 ns         1 6J7      -0.000400
      8 C6           6.2900     0.0000    -0.6660 cd         1 6J7      -0.020200
      9 N2           7.4750     0.0010    -1.3580 nz         1 6J7       0.223400
     10 N1           5.1590    -0.0000    -1.3360 nc         1 6J7      -0.342100
     11 C5           3.9800     0.0000    -0.7030 cc         1 6J7      -0.232200
     12 N            2.6760    -0.0060    -1.1180 na         1 6J7       0.356100
     13 C4           2.2070    -0.0140    -2.5050 c3         1 6J7       0.107800
     14 C2           1.6760    -1.4230    -2.8740 c3         1 6J7       0.142100
     15 O4           2.3650    -1.9390    -4.0150 oh         1 6J7      -0.549800
     16 O5           1.1060     0.9150    -2.6600 os         1 6J7      -0.368600
     17 C3           0.2480     0.3280    -3.6360 c3         1 6J7       0.059100
     18 C           -1.1700     0.8580    -3.6970 c3         1 6J7       0.306400
     19 O1          -1.8220     0.1760    -4.7950 os         1 6J7      -0.458200
     20 C1           0.1990    -1.1670    -3.2030 c3         1 6J7       0.200100
     21 O3          -0.2940    -1.8950    -4.3330 os         1 6J7      -0.441200
     22 P           -1.7450    -1.4420    -4.9150 p5         1 6J7       1.238500
     23 O           -2.8260    -2.0440    -4.1040 o          1 6J7      -0.642300
     24 O2          -1.8880    -1.8990    -6.4520 oh         1 6J7      -0.603400
     25 H10          7.1980    -0.0010     1.1750 hn         1 6J7       0.190500
     26 H8           7.9850     0.8360    -1.1450 hn         1 6J7       0.216800
     27 H9           8.0170    -0.7980    -1.0930 hn         1 6J7       0.216800
     28 H7           3.0140     0.2590    -3.1730 h2         1 6J7       0.069700
     29 H3           1.7660    -2.0950    -2.0290 h1         1 6J7       0.023700
     30 HO4          2.6680    -2.8120    -3.8300 ho         1 6J7       0.406000
     31 H6           0.7070     0.4060    -4.6140 h1         1 6J7       0.054700
     32 H1          -1.1580     1.9260    -3.8810 h1         1 6J7       0.017200
     33 H           -1.6860     0.6420    -2.7700 h1         1 6J7       0.017200
     34 H5          -0.4310    -1.3040    -2.3330 h1         1 6J7       0.042700
     35 H2          -2.6230    -2.4830    -6.5390 ho         1 6J7       0.466000
     36 H23          7.2880    -0.0370    -2.3400 hn         1 6J7       0.216800
@<TRIPOS>BOND
     1     1     2 1   
     2     2     3 2   
     3     2    12 1   
     4     3     4 1   
     5     4     5 1   
     6     4    11 2   
     7     5     6 2   
     8     5     7 1   
     9     7     8 1   
    10     7    25 1   
    11     8     9 1   
    12     8    10 2   
    13     9    26 1   
    14     9    27 1   
    15     9    36 1   
    16    10    11 1   
    17    11    12 1   
    18    12    13 1   
    19    13    14 1   
    20    13    16 1   
    21    13    28 1   
    22    14    15 1   
    23    14    20 1   
    24    14    29 1   
    25    15    30 1   
    26    16    17 1   
    27    17    18 1   
    28    17    20 1   
    29    17    31 1   
    30    18    19 1   
    31    18    32 1   
    32    18    33 1   
    33    19    22 1   
    34    20    21 1   
    35    20    34 1   
    36    21    22 1   
    37    22    23 2   
    38    22    24 1   
    39    24    35 1   
@<TRIPOS>SUBSTRUCTURE
     1 6J7         1 TEMP              0 ****  ****    0 ROOT
