@<TRIPOS>MOLECULE
molecule
   45    45     1     0     0
SMALL
bcc


@<TRIPOS>ATOM
      1 C1           0.0000     0.0000     0.0000 c3         1 6J8      -0.251600
      2 C2           1.5300     0.0000     0.0000 c3         1 6J8      -0.013700
      3 C3           2.0400     1.2500    -0.7200 c3         1 6J8      -0.154400
      4 C4           3.5360     1.1670    -0.8720 c          1 6J8       0.695100
      5 O6          -0.1040    -1.9790    -1.9870 o          1 6J8      -0.913833
      6 O7          -2.2160    -0.4490    -1.6620 o          1 6J8      -0.913833
      7 C11          5.6550     2.0410    -1.7010 c3         1 6J8       0.097300
      8 C13          2.0400     0.0000     1.4430 c3         1 6J8      -0.086400
      9 C14          1.6350    -1.3070     2.1270 c3         1 6J8      -0.069400
     10 C15          2.1440    -1.3080     3.5690 c3         1 6J8      -0.044100
     11 C16          1.7450    -2.5960     4.2420 ca         1 6J8      -0.076300
     12 C17          2.5870    -3.6920     4.1890 ca         1 6J8      -0.093500
     13 C18          0.5420    -2.6790     4.9170 ca         1 6J8      -0.093500
     14 C23         -0.6040    -6.1390     6.7600 c3         1 6J8       0.136700
     15 O12          4.1450     0.2400    -0.3810 o          1 6J8      -0.627100
     16 N9           4.2000     2.1230    -1.5530 n          1 6J8      -0.391300
     17 O10          3.4890     3.2050    -2.1260 oh         1 6J8      -0.360100
     18 P5          -0.6070    -0.4870    -1.6490 p5         1 6J8       1.050700
     19 O8          -0.0830     0.4510    -2.6650 o          1 6J8      -0.913833
     20 C19          2.2250    -4.8730     4.8060 ca         1 6J8      -0.202000
     21 C21          1.0140    -4.9600     5.4790 ca         1 6J8       0.132100
     22 O22          0.6550    -6.1220     6.0860 os         1 6J8      -0.344900
     23 C20          0.1770    -3.8570     5.5400 ca         1 6J8      -0.202000
     24 H1          -0.3610    -0.7030     0.7400 hc         1 6J8       0.021700
     25 H2          -0.3610     0.9930     0.2390 hc         1 6J8       0.021700
     26 H3           1.8910    -0.8840    -0.5110 hc         1 6J8       0.090700
     27 H4           1.5810     1.3150    -1.6990 hc         1 6J8       0.102700
     28 H5           1.7840     2.1290    -0.1420 hc         1 6J8       0.102700
     29 H8           6.0140     2.9210    -2.2220 h1         1 6J8       0.028700
     30 H9           5.9110     1.1550    -2.2700 h1         1 6J8       0.028700
     31 H10          6.1150     1.9880    -0.7220 h1         1 6J8       0.028700
     32 H11          1.6070     0.8370     1.9790 hc         1 6J8       0.017200
     33 H12          3.1190     0.0890     1.4450 hc         1 6J8       0.017200
     34 H13          2.0670    -2.1440     1.5910 hc         1 6J8       0.063200
     35 H14          0.5550    -1.3960     2.1250 hc         1 6J8       0.063200
     36 H15          1.7120    -0.4720     4.1050 hc         1 6J8       0.032700
     37 H16          3.2240    -1.2190     3.5710 hc         1 6J8       0.032700
     38 H17          3.5440    -3.6150     3.6850 ha         1 6J8       0.134000
     39 H18         -0.1800    -1.8970     5.1210 ha         1 6J8       0.134000
     40 H19         -0.6320    -5.3400     7.4920 h1         1 6J8       0.031700
     41 H20         -1.4010    -5.9970     6.0410 h1         1 6J8       0.031700
     42 H21         -0.7330    -7.0910     7.2600 h1         1 6J8       0.031700
     43 H22          3.9500     4.0090    -1.9550 ho         1 6J8       0.366000
     44 H23          2.9020    -5.7190     4.7960 ha         1 6J8       0.130500
     45 H24         -0.7790    -3.6220     5.9920 ha         1 6J8       0.130500
@<TRIPOS>BOND
     1    14    22 1   
     2    22    21 1   
     3    23    21 ar  
     4    23    13 ar  
     5    21    20 ar  
     6    13    11 ar  
     7    20    12 ar  
     8    11    12 ar  
     9    11    10 1   
    10    10     9 1   
    11     7    16 1   
    12    17    16 1   
    13    16     4 1   
    14     8     9 1   
    15     8     2 1   
    16    19    18 1   
    17     4    15 2   
    18     4     3 1   
    19     2     3 1   
    20     2     1 1   
    21    18     1 1   
    22    18     5 1   
    23    18     6 1   
    24     1    24 1   
    25     1    25 1   
    26     2    26 1   
    27     3    27 1   
    28     3    28 1   
    29     7    29 1   
    30     7    30 1   
    31     7    31 1   
    32     8    32 1   
    33     8    33 1   
    34     9    34 1   
    35     9    35 1   
    36    10    36 1   
    37    10    37 1   
    38    12    38 1   
    39    13    39 1   
    40    14    40 1   
    41    14    41 1   
    42    14    42 1   
    43    17    43 1   
    44    20    44 1   
    45    23    45 1   
@<TRIPOS>SUBSTRUCTURE
     1 6J8         1 TEMP              0 ****  ****    0 ROOT
