@<TRIPOS>MOLECULE
molecule
   28    30     1     0     0
SMALL
bcc


@<TRIPOS>ATOM
      1 C4           0.0000     0.0000     0.0000 ca         1 6J9       0.698200
      2 C5           1.4030     0.0000     0.0000 ca         1 6J9      -0.365400
      3 C6           2.0770     0.0000     1.2350 ca         1 6J9       0.505800
      4 N1          -2.5170     1.0750    -3.1090 n7         1 6J9      -0.821200
      5 C7           2.4390    -0.0010    -1.0310 cc         1 6J9      -0.169200
      6 C8           3.6210    -0.0010    -0.3930 cd         1 6J9      -0.110100
      7 N2          -0.6310     0.0000     1.1710 nb         1 6J9      -0.815000
      8 C9           0.0420     0.0010     2.3070 ca         1 6J9       0.723900
      9 N           -0.7090     0.0060    -1.1880 nh         1 6J9      -0.696300
     10 C1          -0.3230     1.1500    -2.0260 c3         1 6J9       0.171300
     11 C           -2.1570     0.0050    -0.9370 c3         1 6J9       0.171300
     12 C2          -2.9030    -0.0680    -2.2710 c3         1 6J9       0.152300
     13 C3          -1.0700     1.0760    -3.3600 c3         1 6J9       0.152300
     14 N4           1.3560     0.0000     2.3550 nb         1 6J9      -0.783000
     15 N3           3.4170    -0.0010     0.9630 na         1 6J9      -0.273100
     16 H3           2.2830    -0.0010    -2.1030 ha         1 6J9       0.159000
     17 H4           4.5900    -0.0020    -0.8770 h4         1 6J9       0.172000
     18 H5          -0.5120     0.0010     3.2390 h5         1 6J9       0.059100
     19 H6           0.7440     1.1200    -2.2080 h1         1 6J9       0.060200
     20 H7          -0.5830     2.0720    -1.5190 h1         1 6J9       0.060200
     21 H8          -2.4170    -0.8550    -0.3310 h1         1 6J9       0.060200
     22 H9          -2.4340     0.9150    -0.4190 h1         1 6J9       0.060200
     23 H10         -3.9700    -0.0370    -2.0890 h1         1 6J9       0.040950
     24 H11         -2.6440    -0.9900    -2.7780 h1         1 6J9       0.040950
     25 H12         -0.7930     0.1650    -3.8770 h1         1 6J9       0.040950
     26 H13         -0.8100     1.9350    -3.9670 h1         1 6J9       0.040950
     27 H14          4.1430    -0.0010     1.6520 hn         1 6J9       0.306700
     28 H1          -3.0070     1.0300    -3.9810 hn         1 6J9       0.355800
@<TRIPOS>BOND
     1    12     4 1   
     2    12    11 1   
     3    10     9 1   
     4    10    13 1   
     5     4    13 1   
     6     7     8 ar  
     7     7     1 ar  
     8     9    11 1   
     9     9     1 1   
    10     8    14 ar  
    11     1     2 ar  
    12    14     3 ar  
    13     2     3 ar  
    14     2     5 1   
    15     3    15 1   
    16     5     6 2   
    17    15     6 1   
    18     4    28 1   
    19     5    16 1   
    20     6    17 1   
    21     8    18 1   
    22    10    19 1   
    23    10    20 1   
    24    11    21 1   
    25    11    22 1   
    26    12    23 1   
    27    12    24 1   
    28    13    25 1   
    29    13    26 1   
    30    15    27 1   
@<TRIPOS>SUBSTRUCTURE
     1 6J9         1 TEMP              0 ****  ****    0 ROOT
