@<TRIPOS>MOLECULE
6J9
   28    30     1     0     0
SMALL
bcc


@<TRIPOS>ATOM
      1 C4           0.0000     0.0000     0.0000 ca         1 6J9       0.586200
      2 C5           1.4030     0.0000     0.0000 ca         1 6J9      -0.369400
      3 C6           2.0770     0.0000     1.2350 ca         1 6J9       0.272800
      4 N1          -2.5170     1.0750    -3.1090 n7         1 6J9      -0.584200
      5 C7           2.4390    -0.0010    -1.0310 cc         1 6J9      -0.126200
      6 C8           3.6210    -0.0010    -0.3930 cd         1 6J9      -0.280100
      7 N2          -0.6310     0.0000     1.1710 nb         1 6J9      -0.714000
      8 C9           0.0420     0.0010     2.3070 ca         1 6J9       0.668900
      9 N           -0.7090     0.0060    -1.1880 nh         1 6J9      -0.457300
     10 C1          -0.3230     1.1500    -2.0260 c3         1 6J9       0.135300
     11 C           -2.1570     0.0050    -0.9370 c3         1 6J9       0.135300
     12 C2          -2.9030    -0.0680    -2.2710 c3         1 6J9       0.143300
     13 C3          -1.0700     1.0760    -3.3600 c3         1 6J9       0.143300
     14 N4           1.3560     0.0000     2.3550 nb         1 6J9      -0.659000
     15 N3           3.4170    -0.0010     0.9630 na         1 6J9       0.274900
     16 H3           2.2830    -0.0010    -2.1030 ha         1 6J9       0.137000
     17 H4           4.5900    -0.0020    -0.8770 h4         1 6J9       0.144000
     18 H5          -0.5120     0.0010     3.2390 h5         1 6J9      -0.003900
     19 H6           0.7440     1.1200    -2.2080 h1         1 6J9       0.033200
     20 H7          -0.5830     2.0720    -1.5190 h1         1 6J9       0.033200
     21 H8          -2.4170    -0.8550    -0.3310 h1         1 6J9       0.033200
     22 H9          -2.4340     0.9150    -0.4190 h1         1 6J9       0.033200
     23 H10         -3.9700    -0.0370    -2.0890 h1         1 6J9       0.011950
     24 H11         -2.6440    -0.9900    -2.7780 h1         1 6J9       0.011950
     25 H12         -0.7930     0.1650    -3.8770 h1         1 6J9       0.011950
     26 H13         -0.8100     1.9350    -3.9670 h1         1 6J9       0.011950
     27 H14          4.1430    -0.0010     1.6520 hn         1 6J9       0.119700
     28 H1          -3.0070     1.0300    -3.9810 hn         1 6J9       0.253800
@<TRIPOS>BOND
     1     1     2 ar  
     2     1     7 ar  
     3     1     9 1   
     4     2     3 ar  
     5     2     5 1   
     6     3    14 ar  
     7     3    15 1   
     8     4    12 1   
     9     4    13 1   
    10     4    28 1   
    11     5     6 2   
    12     5    16 1   
    13     6    15 1   
    14     6    17 1   
    15     7     8 ar  
    16     8    14 ar  
    17     8    18 1   
    18     9    10 1   
    19     9    11 1   
    20    10    13 1   
    21    10    19 1   
    22    10    20 1   
    23    11    12 1   
    24    11    21 1   
    25    11    22 1   
    26    12    23 1   
    27    12    24 1   
    28    13    25 1   
    29    13    26 1   
    30    15    27 1   
@<TRIPOS>SUBSTRUCTURE
     1 6J9         1 TEMP              0 ****  ****    0 ROOT
