@<TRIPOS>MOLECULE
6JA
   27    27     1     0     0
SMALL
bcc


@<TRIPOS>ATOM
      1 C            0.0000     0.0000     0.0000 c3         1 6JA      -0.013100
      2 N            6.7460     1.4450     5.6190 n1         1 6JA      -0.327800
      3 C8           1.5180    -0.5090     2.4130 c          1 6JA       0.595000
      4 N2           0.7690     0.0000     3.4140 ns         1 6JA      -0.164500
      5 C7           0.4830     1.3050     3.4930 c          1 6JA       0.595500
      6 O1          -0.1970     1.6780     4.4280 o          1 6JA      -0.674500
      7 N1           0.8940     2.2300     2.6170 ns         1 6JA      -0.164500
      8 C6           1.6540     1.9140     1.5470 c          1 6JA       0.595000
      9 O            2.0180     2.7620     0.7620 o          1 6JA      -0.586000
     10 C2           2.0400     0.4580     1.3670 c3         1 6JA      -0.226000
     11 C1           1.5290     0.0000     0.0000 c3         1 6JA       0.014600
     12 C3           3.5680     0.3640     1.3520 c3         1 6JA      -0.302400
     13 C4           4.1140     0.7360     2.7320 c3         1 6JA       0.288700
     14 SE           6.0700     0.6160     2.7130 ss         1 6JA      -0.153200
     15 C5           6.4950     1.1290     4.5570 c1         1 6JA       0.303900
     16 H1          -0.3610     0.0550    -1.0200 hc         1 6JA       0.007700
     17 H2          -0.3610    -0.9110     0.4620 hc         1 6JA       0.007700
     18 H3          -0.3610     0.8560     0.5580 hc         1 6JA       0.007700
     19 H4           0.4030    -0.6020     4.1250 hn         1 6JA       0.215000
     20 H5           0.6370     3.1890     2.7410 hn         1 6JA       0.215000
     21 H6           1.8870    -1.0010    -0.2070 hc         1 6JA       0.048700
     22 H7           1.8870     0.6750    -0.7680 hc         1 6JA       0.048700
     23 H8           3.9490     0.5220     2.3540 hc         1 6JA       0.086700
     24 H9           3.9690     1.1210     0.6900 hc         1 6JA       0.086700
     25 H10          4.1240     1.8140     2.8380 h1         1 6JA       0.040200
     26 H11          3.4830     0.3030     3.4990 h1         1 6JA       0.040200
     27 O2           1.7690    -1.6940     2.3560 o          1 6JA      -0.586000
@<TRIPOS>BOND
     1     1    11 1   
     2     1    16 1   
     3     1    17 1   
     4     1    18 1   
     5     2    15 3   
     6     3     4 1   
     7     3    10 1   
     8     3    27 2   
     9     4     5 1   
    10     4    19 1   
    11     5     6 2   
    12     5     7 1   
    13     7     8 1   
    14     7    20 1   
    15     8     9 2   
    16     8    10 1   
    17    10    11 1   
    18    10    12 1   
    19    11    21 1   
    20    11    22 1   
    21    12    13 1   
    22    12    23 1   
    23    12    24 1   
    24    13    14 1   
    25    13    25 1   
    26    13    26 1   
    27    14    15 1   
@<TRIPOS>SUBSTRUCTURE
     1 6JA         1 TEMP              0 ****  ****    0 ROOT
