@<TRIPOS>MOLECULE
6JB
   45    45     1     0     0
SMALL
bcc


@<TRIPOS>ATOM
      1 C1           0.0000     0.0000     0.0000 c3         1 6JB      -0.069600
      2 C2           1.5300     0.0000     0.0000 c3         1 6JB       0.019300
      3 C3           2.0400     1.2490    -0.7220 c3         1 6JB      -0.133400
      4 C4           3.5380     1.1660    -0.8730 c          1 6JB       0.613100
      5 O7          -2.2180    -0.4530    -1.6580 o          1 6JB      -0.746500
      6 O8          -0.0970     0.4800    -2.6590 o          1 6JB      -0.746500
      7 C11          5.6550     2.0420    -1.7000 c3         1 6JB       0.086300
      8 C15          2.1470    -1.3050     3.5690 c3         1 6JB       0.012900
      9 C17          0.5430    -2.6780     4.9130 ca         1 6JB      -0.131000
     10 C18          2.5890    -3.6890     4.1910 ca         1 6JB      -0.138000
     11 C19          0.1740    -3.8640     5.5290 ca         1 6JB       0.140100
     12 C20          2.2260    -4.8730     4.8080 ca         1 6JB      -0.069000
     13 C21          1.0200    -4.9630     5.4750 ca         1 6JB      -0.237000
     14 P5          -0.6070    -0.4750    -1.6510 p5         1 6JB       0.436700
     15 O6          -0.0910    -1.9580    -2.0080 o          1 6JB      -0.746500
     16 N9           4.1990     2.1220    -1.5540 n          1 6JB      -0.065300
     17 O10          3.4880     3.2040    -2.1270 oh         1 6JB      -0.421100
     18 O12          4.1460     0.2400    -0.3810 o          1 6JB      -0.673100
     19 C13          2.0410     0.0000     1.4420 c3         1 6JB      -0.063400
     20 C16          1.7480    -2.5940     4.2430 ca         1 6JB      -0.013300
     21 C23         -1.3270    -5.2050     6.7940 c3         1 6JB       0.245700
     22 H1          -0.3610     0.9910     0.2460 hc         1 6JB      -0.002300
     23 H2          -0.3610    -0.7090     0.7350 hc         1 6JB      -0.002300
     24 H3           1.8910    -0.8850    -0.5110 hc         1 6JB       0.067700
     25 H4           1.7830     2.1300    -0.1460 hc         1 6JB       0.075200
     26 H5           1.5820     1.3130    -1.7020 hc         1 6JB       0.075200
     27 H7           5.9190     1.1050    -2.1760 h1         1 6JB      -0.003967
     28 H8           6.0030     2.8670    -2.3090 h1         1 6JB      -0.003967
     29 H9           6.1190     2.0930    -0.7220 h1         1 6JB      -0.003967
     30 H10          2.0680    -2.1430     1.5910 hc         1 6JB       0.039700
     31 H11          0.5560    -1.3950     2.1250 hc         1 6JB       0.039700
     32 H12          3.2260    -1.2160     3.5700 hc         1 6JB       0.006700
     33 H13          1.7150    -0.4690     4.1040 hc         1 6JB       0.006700
     34 H14         -0.1150    -1.8180     4.9540 ha         1 6JB       0.124000
     35 H15          3.5350    -3.6200     3.6680 ha         1 6JB       0.111000
     36 H16          2.8870    -5.7300     4.7650 ha         1 6JB       0.086000
     37 H17          0.7350    -5.8910     5.9560 ha         1 6JB       0.104000
     38 H19          3.8310     4.0170    -1.7940 ho         1 6JB       0.358000
     39 H20          1.6100     0.8370     1.9780 hc         1 6JB      -0.002800
     40 H21          3.1210     0.0880     1.4430 hc         1 6JB      -0.002800
     41 H22         -1.3530    -5.9790     6.0360 h1         1 6JB      -0.011300
     42 H23         -2.2970    -5.1320     7.2700 h1         1 6JB      -0.011300
     43 H24         -0.5780    -5.4520     7.5370 h1         1 6JB      -0.011300
     44 C14          1.6360    -1.3060     2.1260 c3         1 6JB      -0.030400
     45 O22         -1.0130    -3.9520     6.1840 os         1 6JB      -0.307900
@<TRIPOS>BOND
     1     1     2 1   
     2     1    14 1   
     3     1    22 1   
     4     1    23 1   
     5     2     3 1   
     6     2    19 1   
     7     2    24 1   
     8     3     4 1   
     9     3    25 1   
    10     3    26 1   
    11     4    16 1   
    12     4    18 2   
    13     5    14 1   
    14     6    14 1   
    15     7    16 1   
    16     7    27 1   
    17     7    28 1   
    18     7    29 1   
    19     8    20 1   
    20     8    32 1   
    21     8    33 1   
    22     8    44 1   
    23     9    11 ar  
    24     9    20 ar  
    25     9    34 1   
    26    10    12 ar  
    27    10    20 ar  
    28    10    35 1   
    29    11    13 ar  
    30    11    45 1   
    31    12    13 ar  
    32    12    36 1   
    33    13    37 1   
    34    14    15 1   
    35    16    17 1   
    36    17    38 1   
    37    19    39 1   
    38    19    40 1   
    39    19    44 1   
    40    21    41 1   
    41    21    42 1   
    42    21    43 1   
    43    21    45 1   
    44    30    44 1   
    45    31    44 1   
@<TRIPOS>SUBSTRUCTURE
     1 6JB         1 TEMP              0 ****  ****    0 ROOT
