@<TRIPOS>MOLECULE
molecule
   45    45     1     0     0
SMALL
bcc


@<TRIPOS>ATOM
      1 C1           0.0000     0.0000     0.0000 c3         1 6JB      -0.251600
      2 C2           1.5300     0.0000     0.0000 c3         1 6JB      -0.014700
      3 C3           2.0400     1.2490    -0.7220 c3         1 6JB      -0.155400
      4 C4           3.5380     1.1660    -0.8730 c          1 6JB       0.691100
      5 O7          -2.2180    -0.4530    -1.6580 o          1 6JB      -0.913167
      6 O8          -0.0970     0.4800    -2.6590 o          1 6JB      -0.913167
      7 C11          5.6550     2.0420    -1.7000 c3         1 6JB       0.098300
      8 C15          2.1470    -1.3050     3.5690 c3         1 6JB      -0.047100
      9 C17          0.5430    -2.6780     4.9130 ca         1 6JB      -0.149000
     10 C18          2.5890    -3.6890     4.1910 ca         1 6JB      -0.160000
     11 C19          0.1740    -3.8640     5.5290 ca         1 6JB       0.132100
     12 C20          2.2260    -4.8730     4.8080 ca         1 6JB      -0.099000
     13 C21          1.0200    -4.9630     5.4750 ca         1 6JB      -0.242000
     14 P5          -0.6070    -0.4750    -1.6510 p5         1 6JB       1.048700
     15 O6          -0.0910    -1.9580    -2.0080 o          1 6JB      -0.913167
     16 N9           4.1990     2.1220    -1.5540 n          1 6JB      -0.390300
     17 O10          3.4880     3.2040    -2.1270 oh         1 6JB      -0.359100
     18 O12          4.1460     0.2400    -0.3810 o          1 6JB      -0.627100
     19 C13          2.0410     0.0000     1.4420 c3         1 6JB      -0.086400
     20 C16          1.7480    -2.5940     4.2430 ca         1 6JB      -0.017300
     21 C23         -1.3270    -5.2050     6.7940 c3         1 6JB       0.134700
     22 H1          -0.3610     0.9910     0.2460 hc         1 6JB       0.022700
     23 H2          -0.3610    -0.7090     0.7350 hc         1 6JB       0.022700
     24 H3           1.8910    -0.8850    -0.5110 hc         1 6JB       0.090700
     25 H4           1.7830     2.1300    -0.1460 hc         1 6JB       0.102200
     26 H5           1.5820     1.3130    -1.7020 hc         1 6JB       0.102200
     27 H7           5.9190     1.1050    -2.1760 h1         1 6JB       0.029700
     28 H8           6.0030     2.8670    -2.3090 h1         1 6JB       0.029700
     29 H9           6.1190     2.0930    -0.7220 h1         1 6JB       0.029700
     30 H10          2.0680    -2.1430     1.5910 hc         1 6JB       0.064700
     31 H11          0.5560    -1.3950     2.1250 hc         1 6JB       0.064700
     32 H12          3.2260    -1.2160     3.5700 hc         1 6JB       0.036200
     33 H13          1.7150    -0.4690     4.1040 hc         1 6JB       0.036200
     34 H14         -0.1150    -1.8180     4.9540 ha         1 6JB       0.149000
     35 H15          3.5350    -3.6200     3.6680 ha         1 6JB       0.133000
     36 H16          2.8870    -5.7300     4.7650 ha         1 6JB       0.113000
     37 H17          0.7350    -5.8910     5.9560 ha         1 6JB       0.115000
     38 H19          3.8310     4.0170    -1.7940 ho         1 6JB       0.365000
     39 H20          1.6100     0.8370     1.9780 hc         1 6JB       0.017200
     40 H21          3.1210     0.0880     1.4430 hc         1 6JB       0.017200
     41 H22         -1.3530    -5.9790     6.0360 h1         1 6JB       0.030700
     42 H23         -2.2970    -5.1320     7.2700 h1         1 6JB       0.030700
     43 H24         -0.5780    -5.4520     7.5370 h1         1 6JB       0.030700
     44 C14          1.6360    -1.3060     2.1260 c3         1 6JB      -0.069400
     45 O22         -1.0130    -3.9520     6.1840 os         1 6JB      -0.329900
@<TRIPOS>BOND
     1    12    13 ar  
     2    12    10 ar  
     3    13    11 ar  
     4    10    20 ar  
     5    11    45 1   
     6    11     9 ar  
     7    45    21 1   
     8    20     9 ar  
     9    20     8 1   
    10     8    44 1   
    11     7    16 1   
    12    17    16 1   
    13    19    44 1   
    14    19     2 1   
    15    16     4 1   
    16     6    14 1   
    17     4    18 2   
    18     4     3 1   
    19     2     3 1   
    20     2     1 1   
    21     1    14 1   
    22    14    15 1   
    23    14     5 1   
    24     1    22 1   
    25     1    23 1   
    26     2    24 1   
    27     3    25 1   
    28     3    26 1   
    29     7    27 1   
    30     7    28 1   
    31     7    29 1   
    32    44    30 1   
    33    44    31 1   
    34     8    32 1   
    35     8    33 1   
    36     9    34 1   
    37    10    35 1   
    38    12    36 1   
    39    13    37 1   
    40    17    38 1   
    41    19    39 1   
    42    19    40 1   
    43    21    41 1   
    44    21    42 1   
    45    21    43 1   
@<TRIPOS>SUBSTRUCTURE
     1 6JB         1 TEMP              0 ****  ****    0 ROOT
