@<TRIPOS>MOLECULE
molecule
   27    28     1     0     0
SMALL
bcc


@<TRIPOS>ATOM
      1 O01          0.0000     0.0000     0.0000 o          1 6JD      -0.624800
      2 S02          1.4220     0.0000     0.0000 sy         1 6JD       1.293600
      3 O03          2.1980     0.0000     1.1910 o          1 6JD      -0.624800
      4 C04          1.9200    -1.4170    -0.9200 ca         1 6JD      -0.308500
      5 C05          3.1680    -1.9730    -0.7100 ca         1 6JD      -0.015000
      6 C06          3.5620    -3.0840    -1.4300 ca         1 6JD      -0.176500
      7 C07          2.7030    -3.6430    -2.3660 ca         1 6JD       0.161100
      8 O08          3.0890    -4.7340    -3.0780 oh         1 6JD      -0.523100
      9 C09          1.4500    -3.0840    -2.5740 ca         1 6JD      -0.176500
     10 C10          1.0600    -1.9770    -1.8470 ca         1 6JD      -0.015000
     11 C11          1.9190     1.4200    -0.9180 ca         1 6JD      -0.308500
     12 C12          1.0600     1.9750    -1.8480 ca         1 6JD      -0.015000
     13 C13          1.4480     3.0870    -2.5700 ca         1 6JD      -0.176500
     14 C14          2.7000     3.6470    -2.3600 ca         1 6JD       0.161100
     15 O15          3.0830     4.7420    -3.0680 oh         1 6JD      -0.523100
     16 C16          3.5590     3.0880    -1.4250 ca         1 6JD      -0.176500
     17 C17          3.1650     1.9780    -0.7030 ca         1 6JD      -0.015000
     18 H051         3.8390    -1.5360     0.0210 ha         1 6JD       0.153000
     19 H061         4.5400    -3.5190    -1.2650 ha         1 6JD       0.148000
     20 H081         2.8390    -5.5160    -2.6160 ho         1 6JD       0.429000
     21 H091         0.7760    -3.5200    -3.3020 ha         1 6JD       0.148000
     22 H101         0.0820    -1.5400    -2.0100 ha         1 6JD       0.153000
     23 H121         0.0830     1.5380    -2.0120 ha         1 6JD       0.153000
     24 H131         0.7750     3.5220    -3.2990 ha         1 6JD       0.148000
     25 H151         3.5140     4.4680    -3.8610 ho         1 6JD       0.429000
     26 H161         4.5370     3.5250    -1.2580 ha         1 6JD       0.148000
     27 H171         3.8350     1.5410     0.0270 ha         1 6JD       0.153000
@<TRIPOS>BOND
     1     8     7 1   
     2     7     9 ar  
     3     7     6 ar  
     4     9    10 ar  
     5     6     5 ar  
     6    10     4 ar  
     7     5     4 ar  
     8     4     2 1   
     9     2     3 2   
    10     2     1 2   
    11     2    11 1   
    12    11    12 ar  
    13    11    17 ar  
    14    12    13 ar  
    15    17    16 ar  
    16    13    14 ar  
    17    16    14 ar  
    18    14    15 1   
    19     5    18 1   
    20     6    19 1   
    21     8    20 1   
    22     9    21 1   
    23    10    22 1   
    24    12    23 1   
    25    13    24 1   
    26    15    25 1   
    27    16    26 1   
    28    17    27 1   
@<TRIPOS>SUBSTRUCTURE
     1 6JD         1 TEMP              0 ****  ****    0 ROOT
