@<TRIPOS>MOLECULE
6JE
   56    60     1     0     0
SMALL
bcc


@<TRIPOS>ATOM
      1 C1           0.0000     0.0000     0.0000 c3         1 6JE       0.000600
      2 N5           3.4850     0.0000     0.8520 nc         1 6JE      -0.289000
      3 N6           2.5180     0.0000     0.0000 nc         1 6JE      -0.322000
      4 C7           1.3690    -0.0050     0.6290 cd         1 6JE       0.164800
      5 C8          -0.0140     0.8420     6.6210 c3         1 6JE       0.053200
      6 C12         -2.2380    -0.8480     5.5260 c3         1 6JE       0.102200
      7 S16         -0.7200    -0.8690     3.0680 ss         1 6JE      -0.191800
      8 C17         -1.0240    -0.4320     4.7380 cc         1 6JE       0.016600
      9 C18         -0.0390     0.3150     5.2100 cd         1 6JE      -0.090300
     10 C20          2.9360     2.9900     6.3260 ca         1 6JE      -0.064000
     11 C22          2.7300     4.1060     7.1110 ca         1 6JE      -0.107500
     12 C24          1.5710     4.8500     6.9690 ca         1 6JE      -0.024600
     13 C25          0.6140     4.4810     6.0400 ca         1 6JE      -0.107500
     14 C27          0.8100     3.3670     5.2500 ca         1 6JE      -0.064000
     15 C29          1.9750     2.6130     5.3880 ca         1 6JE      -0.144900
     16 O30          5.0870    -0.4050     5.6230 o          1 6JE      -0.612100
     17 C33          4.5550    -2.9270     8.5790 ca         1 6JE      -0.095500
     18 C35          5.4110    -3.0300     9.6580 ca         1 6JE      -0.120500
     19 C37          6.7280    -2.6120     9.5430 ca         1 6JE       0.114100
     20 C38          7.1880    -2.0910     8.3430 ca         1 6JE      -0.120500
     21 C40          6.3340    -1.9880     7.2620 ca         1 6JE      -0.095500
     22 C42          5.0160    -2.4060     7.3770 ca         1 6JE      -0.109400
     23 N43          4.1500    -2.3070     6.2790 ns         1 6JE      -0.036100
     24 C46          3.4250    -1.2380     4.1700 c3         1 6JE      -0.151400
     25 C49          3.7690     0.0140     3.3600 c3         1 6JE       0.156200
     26 N51          3.4000     1.2070     4.1220 n2         1 6JE      -0.459900
     27 C52          2.1930     1.4190     4.5400 cf         1 6JE       0.485500
     28 C53          1.0150     0.5800     4.2460 cd         1 6JE      -0.147900
     29 C54          0.7700    -0.0390     3.0380 cc         1 6JE      -0.121300
     30 N55          1.6510    -0.0130     1.9540 na         1 6JE       0.326200
     31 C56          3.0050    -0.0010     2.0620 cd         1 6JE       0.121800
     32 H13          0.0740    -0.3370    -1.0270 hc         1 6JE       0.023033
     33 H11         -0.6540    -0.6650     0.5520 hc         1 6JE       0.023033
     34 H12         -0.4040     1.0050     0.0220 hc         1 6JE       0.023033
     35 H82         -0.6130     1.7430     6.6810 hc         1 6JE       0.024367
     36 H83          1.0070     1.0680     6.9050 hc         1 6JE       0.024367
     37 H81         -0.4180     0.0950     7.2930 hc         1 6JE       0.024367
     38 H122        -3.0280    -1.1420     4.8450 hc         1 6JE       0.018033
     39 H123        -1.9840    -1.6840     6.1660 hc         1 6JE       0.018033
     40 H121        -2.5770    -0.0170     6.1330 hc         1 6JE       0.018033
     41 H20          3.8430     2.4080     6.4380 ha         1 6JE       0.124000
     42 H22          3.4760     4.3990     7.8400 ha         1 6JE       0.118000
     43 H25         -0.2910     5.0670     5.9340 ha         1 6JE       0.118000
     44 H27          0.0600     3.0790     4.5230 ha         1 6JE       0.124000
     45 H31          8.0220    -3.5400    10.5710 ho         1 6JE       0.401000
     46 H35          5.0520    -3.4360    10.5960 ha         1 6JE       0.115500
     47 H38          8.2170    -1.7640     8.2530 ha         1 6JE       0.115500
     48 H40          6.6940    -1.5810     6.3250 ha         1 6JE       0.122500
     49 H43          3.4720    -3.0230     6.1110 hn         1 6JE       0.165500
     50 H461         3.6100    -2.1200     3.5690 hc         1 6JE       0.047200
     51 H462         2.3800    -1.2080     4.4540 hc         1 6JE       0.047200
     52 H49          4.8320     0.0340     3.1510 h1         1 6JE       0.085700
     53 Cl           1.3180     6.2530     7.9600 cl         1 6JE      -0.025400
     54 C45          4.2810    -1.2850     5.4090 c          1 6JE       0.558100
     55 H33          3.5260    -3.2540     8.6690 ha         1 6JE       0.122500
     56 O31          7.5690    -2.7140    10.6060 oh         1 6JE      -0.499100
@<TRIPOS>BOND
     1     1     4 1   
     2     1    32 1   
     3     1    33 1   
     4     1    34 1   
     5     2     3 1   
     6     2    31 2   
     7     3     4 2   
     8     4    30 1   
     9     5     9 1   
    10     5    35 1   
    11     5    36 1   
    12     5    37 1   
    13     6     8 1   
    14     6    38 1   
    15     6    39 1   
    16     6    40 1   
    17     7     8 1   
    18     7    29 1   
    19     8     9 2   
    20     9    28 1   
    21    10    11 ar  
    22    10    15 ar  
    23    10    41 1   
    24    11    12 ar  
    25    11    42 1   
    26    12    13 ar  
    27    12    53 1   
    28    13    14 ar  
    29    13    43 1   
    30    14    15 ar  
    31    14    44 1   
    32    15    27 1   
    33    16    54 2   
    34    17    18 ar  
    35    17    22 ar  
    36    17    55 1   
    37    18    19 ar  
    38    18    46 1   
    39    19    20 ar  
    40    19    56 1   
    41    20    21 ar  
    42    20    47 1   
    43    21    22 ar  
    44    21    48 1   
    45    22    23 1   
    46    23    49 1   
    47    23    54 1   
    48    24    25 1   
    49    24    50 1   
    50    24    51 1   
    51    24    54 1   
    52    25    26 1   
    53    25    31 1   
    54    25    52 1   
    55    26    27 2   
    56    27    28 1   
    57    28    29 2   
    58    29    30 1   
    59    30    31 1   
    60    45    56 1   
@<TRIPOS>SUBSTRUCTURE
     1 6JE         1 TEMP              0 ****  ****    0 ROOT
