@<TRIPOS>MOLECULE
molecule
   41    44     1     0     0
SMALL
bcc


@<TRIPOS>ATOM
      1 C4           0.0000     0.0000     0.0000 ca         1 6JG      -0.119500
      2 C5           1.3880     0.0000     0.0000 ca         1 6JG       0.074100
      3 C6           2.0820     0.0000     1.2010 ca         1 6JG      -0.119500
      4 N1           3.8670    -0.1830    -4.8790 nc         1 6JG      -0.600100
      5 C7           1.3930     0.0010     2.3970 ca         1 6JG      -0.141000
      6 C8           1.9590     1.0930    -1.9760 ca         1 6JG       0.153100
      7 N2           5.6960    -3.7870    -5.4110 nb         1 6JG      -0.687000
      8 C9           1.2660     2.2100    -1.5370 ca         1 6JG      -0.212000
      9 C10          1.1570     3.3220    -2.3500 ca         1 6JG      -0.074000
     10 C11          1.7370     3.3290    -3.6070 ca         1 6JG      -0.171000
     11 C12          2.4300     2.2250    -4.0600 ca         1 6JG      -0.047000
     12 C13          2.5520     1.0980    -3.2450 ca         1 6JG      -0.143900
     13 C14          3.2930    -0.0860    -3.7240 cd         1 6JG       0.498800
     14 C15          4.5000    -1.3200    -5.1710 ca         1 6JG       0.160400
     15 O            0.9490     1.0750     4.6440 o          1 6JG      -0.591100
     16 C1          -0.1250     0.5160     4.7190 c          1 6JG       0.657100
     17 C           -0.8200     0.3960     6.0500 c3         1 6JG      -0.172100
     18 C2           0.0050     0.0010     2.3980 ca         1 6JG       0.058600
     19 C3          -0.6900    -0.0000     1.1950 ca         1 6JG      -0.141000
     20 O1           2.0670     0.0000    -1.1780 os         1 6JG      -0.245200
     21 S            3.5240    -1.5680    -2.8040 ss         1 6JG      -0.051100
     22 C19          4.4390    -2.2650    -4.1350 ca         1 6JG      -0.213400
     23 C18          5.0580    -3.4990    -4.2960 ca         1 6JG       0.472200
     24 C17          5.7770    -2.9250    -6.4100 ca         1 6JG       0.411200
     25 C16          5.2010    -1.6940    -6.3410 ca         1 6JG      -0.205300
     26 H1          -0.5420    -0.0000    -0.9380 ha         1 6JG       0.150000
     27 H2           3.1650    -0.0000     1.2010 ha         1 6JG       0.150000
     28 H3           1.9360     0.0010     3.3350 ha         1 6JG       0.156500
     29 H4           0.8080     2.2100    -0.5550 ha         1 6JG       0.154000
     30 H5           0.6140     4.1920    -2.0020 ha         1 6JG       0.136000
     31 H6           1.6440     4.2040    -4.2380 ha         1 6JG       0.138000
     32 H7           2.8840     2.2360    -5.0430 ha         1 6JG       0.161000
     33 H8          -1.0960    -0.6370     6.2220 hc         1 6JG       0.065700
     34 H9          -0.1530     0.7280     6.8370 hc         1 6JG       0.065700
     35 H10         -1.7110     1.0120     6.0490 hc         1 6JG       0.065700
     36 H11         -1.6060    -0.4110     3.6650 hn         1 6JG       0.326500
     37 H12         -1.7740    -0.0000     1.1950 ha         1 6JG       0.156500
     38 H13          5.0120    -4.2310    -3.4980 h4         1 6JG       0.027100
     39 H14          6.3130    -3.2080    -7.3080 h4         1 6JG       0.026100
     40 H15          5.2820    -1.0050    -7.1730 ha         1 6JG       0.150000
     41 N           -0.6960     0.0010     3.6120 ns         1 6JG      -0.478100
@<TRIPOS>BOND
     1    10     9 ar  
     2    10    11 ar  
     3     9     8 ar  
     4    11    12 ar  
     5     8     6 ar  
     6    12     6 ar  
     7    12    13 1   
     8     6    20 1   
     9     1    19 ar  
    10     1     2 ar  
    11    19    18 ar  
    12     4    13 2   
    13     4    14 1   
    14    13    21 1   
    15    20     2 1   
    16     2     3 ar  
    17    18    41 1   
    18    18     5 ar  
    19    41    16 1   
    20    15    16 2   
    21    16    17 1   
    22    14    25 ar  
    23    14    22 ar  
    24     3     5 ar  
    25    25    24 ar  
    26    21    22 1   
    27    22    23 ar  
    28    24     7 ar  
    29    23     7 ar  
    30     1    26 1   
    31     3    27 1   
    32     5    28 1   
    33     8    29 1   
    34     9    30 1   
    35    10    31 1   
    36    11    32 1   
    37    17    33 1   
    38    17    34 1   
    39    17    35 1   
    40    41    36 1   
    41    19    37 1   
    42    23    38 1   
    43    24    39 1   
    44    25    40 1   
@<TRIPOS>SUBSTRUCTURE
     1 6JG         1 TEMP              0 ****  ****    0 ROOT
