@<TRIPOS>MOLECULE
6JG
   41    44     1     0     0
SMALL
bcc


@<TRIPOS>ATOM
      1 C4           0.0000     0.0000     0.0000 ca         1 6JG      -0.099000
      2 C5           1.3880     0.0000     0.0000 ca         1 6JG       0.082100
      3 C6           2.0820     0.0000     1.2010 ca         1 6JG      -0.099000
      4 N1           3.8670    -0.1830    -4.8790 nc         1 6JG      -0.470100
      5 C7           1.3930     0.0010     2.3970 ca         1 6JG      -0.112000
      6 C8           1.9590     1.0930    -1.9760 ca         1 6JG       0.164100
      7 N2           5.6960    -3.7870    -5.4110 nb         1 6JG      -0.581000
      8 C9           1.2660     2.2100    -1.5370 ca         1 6JG      -0.208000
      9 C10          1.1570     3.3220    -2.3500 ca         1 6JG      -0.038000
     10 C11          1.7370     3.3290    -3.6070 ca         1 6JG      -0.149000
     11 C12          2.4300     2.2250    -4.0600 ca         1 6JG      -0.021000
     12 C13          2.5520     1.0980    -3.2450 ca         1 6JG      -0.159900
     13 C14          3.2930    -0.0860    -3.7240 cd         1 6JG       0.495800
     14 C15          4.5000    -1.3200    -5.1710 ca         1 6JG       0.107400
     15 O            0.9490     1.0750     4.6440 o          1 6JG      -0.631100
     16 C1          -0.1250     0.5160     4.7190 c          1 6JG       0.559100
     17 C           -0.8200     0.3960     6.0500 c3         1 6JG      -0.069100
     18 C2           0.0050     0.0010     2.3980 ca         1 6JG      -0.092400
     19 C3          -0.6900    -0.0000     1.1950 ca         1 6JG      -0.112000
     20 O1           2.0670     0.0000    -1.1780 os         1 6JG      -0.205200
     21 S            3.5240    -1.5680    -2.8040 ss         1 6JG      -0.174100
     22 C19          4.4390    -2.2650    -4.1350 ca         1 6JG      -0.162400
     23 C18          5.0580    -3.4990    -4.2960 ca         1 6JG       0.468200
     24 C17          5.7770    -2.9250    -6.4100 ca         1 6JG       0.401200
     25 C16          5.2010    -1.6940    -6.3410 ca         1 6JG      -0.172300
     26 H1          -0.5420    -0.0000    -0.9380 ha         1 6JG       0.120500
     27 H2           3.1650    -0.0000     1.2010 ha         1 6JG       0.120500
     28 H3           1.9360     0.0010     3.3350 ha         1 6JG       0.132000
     29 H4           0.8080     2.2100    -0.5550 ha         1 6JG       0.135000
     30 H5           0.6140     4.1920    -2.0020 ha         1 6JG       0.103000
     31 H6           1.6440     4.2040    -4.2380 ha         1 6JG       0.110000
     32 H7           2.8840     2.2360    -5.0430 ha         1 6JG       0.125000
     33 H8          -1.0960    -0.6370     6.2220 hc         1 6JG       0.025367
     34 H9          -0.1530     0.7280     6.8370 hc         1 6JG       0.025367
     35 H10         -1.7110     1.0120     6.0490 hc         1 6JG       0.025367
     36 H11         -1.6060    -0.4110     3.6650 hn         1 6JG       0.168500
     37 H12         -1.7740    -0.0000     1.1950 ha         1 6JG       0.132000
     38 H13          5.0120    -4.2310    -3.4980 h4         1 6JG      -0.013900
     39 H14          6.3130    -3.2080    -7.3080 h4         1 6JG      -0.018900
     40 H15          5.2820    -1.0050    -7.1730 ha         1 6JG       0.122000
     41 N           -0.6960     0.0010     3.6120 ns         1 6JG      -0.033100
@<TRIPOS>BOND
     1     1     2 ar  
     2     1    19 ar  
     3     1    26 1   
     4     2     3 ar  
     5     2    20 1   
     6     3     5 ar  
     7     3    27 1   
     8     4    13 2   
     9     4    14 1   
    10     5    18 ar  
    11     5    28 1   
    12     6     8 ar  
    13     6    12 ar  
    14     6    20 1   
    15     7    23 ar  
    16     7    24 ar  
    17     8     9 ar  
    18     8    29 1   
    19     9    10 ar  
    20     9    30 1   
    21    10    11 ar  
    22    10    31 1   
    23    11    12 ar  
    24    11    32 1   
    25    12    13 1   
    26    13    21 1   
    27    14    22 ar  
    28    14    25 ar  
    29    15    16 2   
    30    16    17 1   
    31    16    41 1   
    32    17    33 1   
    33    17    34 1   
    34    17    35 1   
    35    18    19 ar  
    36    18    41 1   
    37    19    37 1   
    38    21    22 1   
    39    22    23 ar  
    40    23    38 1   
    41    24    25 ar  
    42    24    39 1   
    43    25    40 1   
    44    36    41 1   
@<TRIPOS>SUBSTRUCTURE
     1 6JG         1 TEMP              0 ****  ****    0 ROOT
