@<TRIPOS>MOLECULE
molecule
   33    36     1     0     0
SMALL
bcc


@<TRIPOS>ATOM
      1 C4           0.0000     0.0000     0.0000 ca         1 6JH      -0.120000
      2 C5           1.3820     0.0000     0.0000 ca         1 6JH      -0.120500
      3 C6          -2.6880    -1.1620     0.9420 ca         1 6JH       0.669600
      4 N1          -6.1600    -0.0090     1.5310 nc         1 6JH      -0.599100
      5 C7          -4.0850    -1.2300     1.0360 ca         1 6JH      -0.252200
      6 C8          -4.7210    -2.4440     0.7590 ca         1 6JH      -0.016000
      7 N2          -7.5390     3.6650     2.6350 nb         1 6JH      -0.684000
      8 C9          -3.9390    -3.5300     0.4030 ca         1 6JH      -0.298300
      9 C10         -2.5660    -3.3840     0.3330 ca         1 6JH       0.475200
     10 C11         -4.8710    -0.0400     1.4200 cd         1 6JH       0.492800
     11 C12         -6.7300     1.1420     1.8880 ca         1 6JH       0.159400
     12 C13         -8.0960     1.4560     2.0820 ca         1 6JH      -0.204300
     13 C14         -8.4450     2.7190     2.4510 ca         1 6JH       0.412200
     14 C15         -6.2530     3.4360     2.4690 ca         1 6JH       0.473200
     15 C16         -5.8030     2.1750     2.0930 ca         1 6JH      -0.211400
     16 S           -4.1900     1.5380     1.7920 ss         1 6JH      -0.042100
     17 N           -1.9870    -2.2270     0.5930 nb         1 6JH      -0.751000
     18 O           -2.0510     0.0060     1.2060 os         1 6JH      -0.360400
     19 C3          -0.6920     0.0070     1.2030 ca         1 6JH       0.103100
     20 C2           0.0060     0.0110     2.4020 ca         1 6JH      -0.120000
     21 C1           1.3880     0.0120     2.3960 ca         1 6JH      -0.120500
     22 C            2.0750     0.0000     1.1960 ca         1 6JH      -0.123000
     23 H1          -0.5420     0.0000    -0.9380 ha         1 6JH       0.142000
     24 H2           1.9220    -0.0070    -0.9390 ha         1 6JH       0.135000
     25 H3          -5.7990    -2.5320     0.8210 ha         1 6JH       0.169000
     26 H4          -4.3990    -4.4860     0.1840 ha         1 6JH       0.148000
     27 H5          -1.9550    -4.2330     0.0530 h4         1 6JH       0.029100
     28 H6          -8.8580     0.6990     1.9380 ha         1 6JH       0.151000
     29 H7          -9.4920     2.9550     2.6000 h4         1 6JH       0.027100
     30 H8          -5.5400     4.2350     2.6280 h4         1 6JH       0.028100
     31 H9          -0.5320     0.0190     3.3420 ha         1 6JH       0.142000
     32 H10          1.9330     0.0140     3.3320 ha         1 6JH       0.135000
     33 H11          3.1580     0.0000     1.1930 ha         1 6JH       0.132000
@<TRIPOS>BOND
     1     8     9 ar
     2     8     6 ar
     3     9    17 ar
     4     6     5 ar
     5    17     3 ar
     6     5     3 ar
     7     5    10 1
     8     3    18 1
     9     4    10 2
    10     4    11 1
    11    10    16 1
    12    20    21 ar
    13    20    19 ar
    14    21    22 ar
    15    18    19 1
    16    19     1 ar
    17    22     2 ar
    18     1     2 ar
    19    11    12 ar
    20    11    15 ar
    21    12    13 ar
    22    16    15 1
    23    15    14 ar
    24    13     7 ar
    25    14     7 ar
    26     1    23 1
    27     2    24 1
    28     6    25 1
    29     8    26 1
    30     9    27 1
    31    12    28 1
    32    13    29 1
    33    14    30 1
    34    20    31 1
    35    21    32 1
    36    22    33 1
@<TRIPOS>SUBSTRUCTURE
     1 6JH         1 TEMP              0 ****  ****    0 ROOT
