@<TRIPOS>MOLECULE
molecule
   31    34     1     0     0
SMALL
bcc


@<TRIPOS>ATOM
      1 C4           0.0000     0.0000     0.0000 ca         1 6JJ      -0.133000
      2 C5           1.3820     0.0000     0.0000 ca         1 6JJ      -0.120000
      3 C6          -2.6880    -1.1970     1.2060 ca         1 6JJ       0.185100
      4 N1          -5.3170     2.2730     1.1870 na         1 6JJ      -0.129200
      5 C7          -1.9560    -2.3740     1.2120 ca         1 6JJ      -0.215000
      6 C8          -2.6060    -3.5940     1.2140 ca         1 6JJ      -0.065000
      7 N2          -6.5830     4.0320     1.1760 nc         1 6JJ      -0.332000
      8 C9          -3.9900    -3.6490     1.2060 ca         1 6JJ      -0.165000
      9 C10         -4.7320    -2.4860     1.1980 ca         1 6JJ      -0.064000
     10 C11         -4.0880    -1.2500     1.2040 ca         1 6JJ      -0.168500
     11 C12         -4.8780     0.0000     1.1940 cd         1 6JJ       0.554900
     12 N3          -7.3580     3.0060     1.1690 nc         1 6JJ      -0.305000
     13 C13         -5.3350     3.6510     1.1860 cd         1 6JJ       0.411400
     14 C14         -6.6340     1.9140     1.1770 cd         1 6JJ       0.389900
     15 N           -4.4200     1.2140     1.2000 nc         1 6JJ      -0.452800
     16 S           -6.6450     0.1470     1.1770 ss         1 6JJ      -0.251800
     17 O           -2.0510     0.0020     1.2060 os         1 6JJ      -0.219200
     18 C3          -0.6920     0.0010     1.2020 ca         1 6JJ       0.086100
     19 C2           0.0050     0.0020     2.4020 ca         1 6JJ      -0.133000
     20 C1           1.3870     0.0020     2.3960 ca         1 6JJ      -0.120000
     21 C            2.0740     0.0000     1.1970 ca         1 6JJ      -0.124000
     22 H1          -0.5420     0.0000    -0.9380 ha         1 6JJ       0.147000
     23 H2           1.9230    -0.0010    -0.9380 ha         1 6JJ       0.138000
     24 H3          -0.8740    -2.3380     1.2160 ha         1 6JJ       0.155000
     25 H4          -2.0300    -4.5110     1.2190 ha         1 6JJ       0.140000
     26 H5          -4.4920    -4.6090     1.2040 ha         1 6JJ       0.142000
     27 H6          -5.8140    -2.5330     1.1940 ha         1 6JJ       0.145000
     28 H7          -4.4530     4.2800     1.1930 h5         1 6JJ       0.084100
     29 H8          -0.5330     0.0040     3.3420 ha         1 6JJ       0.147000
     30 H9           1.9320     0.0030     3.3320 ha         1 6JJ       0.138000
     31 H10          3.1580    -0.0000     1.1940 ha         1 6JJ       0.136000
@<TRIPOS>BOND
     1     8     6 ar
     2     8     9 ar
     3     6     5 ar
     4     9    10 ar
     5     5     3 ar
     6    10     3 ar
     7    10    11 1
     8     3    17 1
     9     1     2 ar
    10     1    18 ar
    11     2    21 ar
    12    15    11 2
    13    15     4 1
    14    11    16 1
    15    18    17 1
    16    18    19 ar
    17    21    20 ar
    18    19    20 ar
    19     4    13 1
    20     4    14 1
    21    16    14 1
    22    13     7 2
    23    14    12 2
    24     7    12 1
    25     1    22 1
    26     2    23 1
    27     5    24 1
    28     6    25 1
    29     8    26 1
    30     9    27 1
    31    13    28 1
    32    19    29 1
    33    20    30 1
    34    21    31 1
@<TRIPOS>SUBSTRUCTURE
     1 6JJ         1 TEMP              0 ****  ****    0 ROOT
