@<TRIPOS>MOLECULE
molecule
   31    33     1     0     0
SMALL
bcc


@<TRIPOS>ATOM
      1 CAN          0.0000     0.0000     0.0000 ca         1 6JM      -0.098000
      2 CAO          1.3810     0.0000     0.0000 ca         1 6JM       0.084100
      3 OAQ          2.0610     0.0000    -1.1770 oh         1 6JM      -0.504100
      4 CAP          2.0770     0.0000     1.2080 ca         1 6JM       0.112100
      5 OAR          3.4360     0.0000     1.2060 oh         1 6JM      -0.509100
      6 CAK          1.3870     0.0000     2.4120 ca         1 6JM      -0.165000
      7 CAL          0.0080     0.0010     2.4190 ca         1 6JM      -0.089000
      8 CAM         -0.6970     0.0060     1.2120 ca         1 6JM      -0.062800
      9 CAJ         -2.1710     0.0060     1.2190 cc         1 6JM       0.173900
     10 OAG         -2.8160    -0.8600     2.0170 os         1 6JM      -0.198200
     11 CAF         -4.1630    -0.9200     2.0790 ca         1 6JM       0.146100
     12 CAA         -4.7930    -1.8300     2.9210 ca         1 6JM      -0.143000
     13 CAB         -6.1690    -1.8810     2.9740 ca         1 6JM      -0.098000
     14 CAC         -6.9410    -1.0270     2.1920 ca         1 6JM       0.070100
     15 OAU         -8.2980    -1.0900     2.2560 oh         1 6JM      -0.515100
     16 CAD         -6.3330    -0.1160     1.3500 ca         1 6JM      -0.065000
     17 CAE         -4.9410    -0.0590     1.2900 ca         1 6JM      -0.215600
     18 CAH         -4.2540     0.9010     0.4050 c          1 6JM       0.561900
     19 OAT         -4.8820     1.6760    -0.3000 o          1 6JM      -0.540100
     20 CAI         -2.8370     0.8950     0.4100 cd         1 6JM      -0.097100
     21 OAS         -2.1430     1.7560    -0.3830 oh         1 6JM      -0.481100
     22 H1          -0.5430     0.0040    -0.9380 ha         1 6JM       0.165000
     23 H2           2.0090    -0.8550    -1.5700 ho         1 6JM       0.424000
     24 H3           3.7500     0.8510     1.4650 ho         1 6JM       0.427000
     25 H4           1.9330    -0.0020     3.3470 ha         1 6JM       0.147000
     26 H5          -0.5280     0.0030     3.3600 ha         1 6JM       0.144000
     27 H6          -4.2020    -2.4990     3.5340 ha         1 6JM       0.153000
     28 H7          -6.6540    -2.5940     3.6290 ha         1 6JM       0.151000
     29 H8          -8.6150    -1.7000     1.6110 ho         1 6JM       0.421000
     30 H9          -6.9320     0.5500     0.7410 ha         1 6JM       0.170000
     31 H10         -2.4130     2.6400    -0.2000 ho         1 6JM       0.429000
@<TRIPOS>BOND
     1    19    18 2   
     2    21    20 1   
     3    18    20 1   
     4    18    17 1   
     5    20     9 2   
     6    16    17 ar  
     7    16    14 ar  
     8    17    11 ar  
     9     9     8 1   
    10     9    10 1   
    11    15    14 1   
    12    14    13 ar  
    13     7     8 ar  
    14     7     6 ar  
    15     8     1 ar  
    16    11    10 1   
    17    11    12 ar  
    18     6     4 ar  
    19     1     2 ar  
    20    13    12 ar  
    21     4     2 ar  
    22     4     5 1   
    23     2     3 1   
    24     1    22 1   
    25     3    23 1   
    26     5    24 1   
    27     6    25 1   
    28     7    26 1   
    29    12    27 1   
    30    13    28 1   
    31    15    29 1   
    32    16    30 1   
    33    21    31 1   
@<TRIPOS>SUBSTRUCTURE
     1 6JM         1 TEMP              0 ****  ****    0 ROOT
