@<TRIPOS>MOLECULE
molecule
   14    13     1     0     0
SMALL
bcc


@<TRIPOS>ATOM
      1 CAA          0.0000     0.0000     0.0000 c3         1 6JN      -0.288900
      2 CAB          1.5070     0.0000     0.0000 c          1 6JN       0.888600
      3 CAC         -0.5030     0.0000     1.4200 c          1 6JN       0.525100
      4 CAD         -1.9840     0.0000     1.6950 c3         1 6JN      -0.288900
      5 CAE         -2.2200     0.0010     3.1840 c          1 6JN       0.888600
      6 OAF         -3.4720     0.0000     3.6660 o          1 6JN      -0.856550
      7 OAG         -1.2800     0.0010     3.9440 o          1 6JN      -0.856550
      8 OAH          0.2810     0.0000     2.3390 o          1 6JN      -0.427100
      9 OAI          2.1790    -0.0010    -1.1620 o          1 6JN      -0.856550
     10 OAJ          2.1110     0.0000     1.0470 o          1 6JN      -0.856550
     11 H1          -0.3610    -0.8840    -0.5110 hc         1 6JN       0.031700
     12 H2          -0.3610     0.8840    -0.5110 hc         1 6JN       0.031700
     13 H3          -2.4330     0.8850     1.2590 hc         1 6JN       0.031700
     14 H4          -2.4330    -0.8840     1.2590 hc         1 6JN       0.031700
@<TRIPOS>BOND
     1     7     5 1
     2     4     5 1
     3     4     3 1
     4     5     6 1
     5     8     3 2
     6     3     1 1
     7     1     2 1
     8     2    10 1
     9     2     9 1
    10     1    11 1
    11     1    12 1
    12     4    13 1
    13     4    14 1
@<TRIPOS>SUBSTRUCTURE
     1 6JN         1 TEMP              0 ****  ****    0 ROOT
