@<TRIPOS>MOLECULE
molecule
   30    32     1     0     0
SMALL
bcc


@<TRIPOS>ATOM
      1 CAN          0.0000     0.0000     0.0000 ca         1 6JO      -0.098000
      2 CAO          1.3840     0.0000     0.0000 ca         1 6JO       0.098100
      3 OAQ          2.0620     0.0010    -1.1780 oh         1 6JO      -0.516100
      4 CAP          2.0800     0.0000     1.2010 ca         1 6JO      -0.135000
      5 CAK          1.3950    -0.0010     2.4030 ca         1 6JO      -0.125000
      6 CAL          0.0160    -0.0010     2.4160 ca         1 6JO      -0.103000
      7 CAM         -0.6940     0.0050     1.2130 ca         1 6JO      -0.051800
      8 CAJ         -2.1690     0.0040     1.2230 cc         1 6JO       0.171900
      9 OAG         -2.8100    -0.8630     2.0230 os         1 6JO      -0.199200
     10 CAE         -4.1570    -0.9260     2.0890 ca         1 6JO       0.148100
     11 CAF         -4.7850    -1.8380     2.9290 ca         1 6JO      -0.144000
     12 CAA         -6.1600    -1.8890     2.9860 ca         1 6JO      -0.097000
     13 CAB         -6.9340    -1.0340     2.2070 ca         1 6JO       0.069100
     14 OAT         -8.2910    -1.0970     2.2730 oh         1 6JO      -0.515100
     15 CAC         -6.3270    -0.1210     1.3650 ca         1 6JO      -0.065000
     16 CAD         -4.9360    -0.0640     1.3020 ca         1 6JO      -0.217600
     17 CAH         -4.2490     0.8970     0.4170 c          1 6JO       0.562900
     18 OAS         -4.8760     1.6730    -0.2840 o          1 6JO      -0.539100
     19 CAI         -2.8300     0.8880     0.4240 cd         1 6JO      -0.094100
     20 OAR         -2.1360     1.7490    -0.3690 oh         1 6JO      -0.480100
     21 H1          -0.5440     0.0040    -0.9370 ha         1 6JO       0.163000
     22 H2           2.2420    -0.8870    -1.4380 ho         1 6JO       0.420000
     23 H3           3.1630     0.0000     1.1970 ha         1 6JO       0.143000
     24 H4           1.9440    -0.0030     3.3370 ha         1 6JO       0.138000
     25 H5          -0.5170     0.0000     3.3590 ha         1 6JO       0.141000
     26 H6          -4.1930    -2.5080     3.5410 ha         1 6JO       0.153000
     27 H7          -6.6440    -2.6010     3.6430 ha         1 6JO       0.151000
     28 H8          -8.6100    -1.7010     1.6230 ho         1 6JO       0.421000
     29 H9          -6.9290     0.5450     0.7580 ha         1 6JO       0.170000
     30 H10         -2.4400     2.6290    -0.2190 ho         1 6JO       0.430000
@<TRIPOS>BOND
     1    20    19 1   
     2    18    17 2   
     3    17    19 1   
     4    17    16 1   
     5    19     8 2   
     6    15    16 ar  
     7    15    13 ar  
     8    16    10 ar  
     9     8     7 1   
    10     8     9 1   
    11    13    14 1   
    12    13    12 ar  
    13     7     6 ar  
    14     7     1 ar  
    15     6     5 ar  
    16    10     9 1   
    17    10    11 ar  
    18     1     2 ar  
    19     5     4 ar  
    20     2     4 ar  
    21     2     3 1   
    22    12    11 ar  
    23     1    21 1   
    24     3    22 1   
    25     4    23 1   
    26     5    24 1   
    27     6    25 1   
    28    11    26 1   
    29    12    27 1   
    30    14    28 1   
    31    15    29 1   
    32    20    30 1   
@<TRIPOS>SUBSTRUCTURE
     1 6JO         1 TEMP              0 ****  ****    0 ROOT
