@<TRIPOS>MOLECULE
molecule
   36    38     1     0     0
SMALL
bcc


@<TRIPOS>ATOM
      1 CAI          0.0000     0.0000     0.0000 c3         1 6JP      -0.206400
      2 CAH          1.5180     0.0000     0.0000 c          1 6JP       0.578700
      3 OAT          2.1560     0.0010    -1.0320 o          1 6JP      -0.496100
      4 CAE          2.1740     0.0000     1.3120 ca         1 6JP      -0.295600
      5 CAD          3.5510    -0.2540     1.4260 ca         1 6JP       0.228100
      6 OAU          4.2900    -0.5160     0.3190 oh         1 6JP      -0.473100
      7 CAC          4.1460    -0.2360     2.6730 ca         1 6JP      -0.284000
      8 CAB          3.3860     0.0310     3.8050 ca         1 6JP       0.197100
      9 OAV          3.9790     0.0490     5.0240 oh         1 6JP      -0.519100
     10 CAA          2.0220     0.2780     3.7000 ca         1 6JP      -0.226000
     11 CAF          1.4060     0.2630     2.4610 ca         1 6JP       0.222100
     12 OAG          0.0740     0.4920     2.3660 os         1 6JP      -0.321900
     13 CAJ         -0.4550     0.9470     1.1210 c3         1 6JP       0.210400
     14 CAK         -1.9600     0.9580     1.1880 ca         1 6JP      -0.121300
     15 CAM         -2.6730     1.9350     0.5180 ca         1 6JP      -0.113000
     16 CAL         -4.0570     1.9470     0.5790 ca         1 6JP       0.077100
     17 OAQ         -4.7590     2.9080    -0.0810 oh         1 6JP      -0.502100
     18 CAP         -4.7270     0.9760     1.3160 ca         1 6JP       0.134100
     19 OAR         -6.0840     0.9830     1.3780 os         1 6JP      -0.311900
     20 CAS         -6.7040    -0.0460     2.1530 c3         1 6JP       0.125700
     21 CAO         -4.0070    -0.0000     1.9850 ca         1 6JP      -0.215000
     22 CAN         -2.6250    -0.0100     1.9160 ca         1 6JP      -0.069000
     23 H1          -0.3570     0.3770    -0.9510 hc         1 6JP       0.086200
     24 H2          -0.3560    -1.0010     0.2120 hc         1 6JP       0.086200
     25 H3           4.9010    -1.2090     0.5050 ho         1 6JP       0.426000
     26 H4           5.2080    -0.4300     2.7680 ha         1 6JP       0.149000
     27 H5           4.3180     0.9120     5.1950 ho         1 6JP       0.431000
     28 H6           1.4410     0.4840     4.5900 ha         1 6JP       0.160000
     29 H7          -0.0890     1.9460     0.9180 h1         1 6JP       0.062700
     30 H8          -2.1490     2.6950    -0.0490 ha         1 6JP       0.146000
     31 H9          -4.7970     2.6950    -0.9980 ho         1 6JP       0.416000
     32 H10         -6.4380    -1.0140     1.7470 h1         1 6JP       0.043033
     33 H11         -7.7800     0.0760     2.1200 h1         1 6JP       0.043033
     34 H12         -6.3650     0.0220     3.1800 h1         1 6JP       0.043033
     35 H13         -4.5260    -0.7590     2.5580 ha         1 6JP       0.143000
     36 H14         -2.0630    -0.7740     2.4400 ha         1 6JP       0.147000
@<TRIPOS>BOND
     1     6     5 1   
     2     3     2 2   
     3     5     7 ar  
     4     5     4 ar  
     5     7     8 ar  
     6     2     4 1   
     7     2     1 1   
     8     4    11 ar  
     9     8     9 1   
    10     8    10 ar  
    11     1    13 1   
    12    11    10 ar  
    13    11    12 1   
    14    13    12 1   
    15    13    14 1   
    16    14    22 ar  
    17    14    15 ar  
    18    22    21 ar  
    19    15    16 ar  
    20    21    18 ar  
    21    16    18 ar  
    22    16    17 1   
    23    18    19 1   
    24    19    20 1   
    25     1    23 1   
    26     1    24 1   
    27     6    25 1   
    28     7    26 1   
    29     9    27 1   
    30    10    28 1   
    31    13    29 1   
    32    15    30 1   
    33    17    31 1   
    34    20    32 1   
    35    20    33 1   
    36    20    34 1   
    37    21    35 1   
    38    22    36 1   
@<TRIPOS>SUBSTRUCTURE
     1 6JP         1 TEMP              0 ****  ****    0 ROOT
