@<TRIPOS>MOLECULE
6JQ
   75    80     1     0     0
SMALL
bcc


@<TRIPOS>ATOM
      1 C1           0.0000     0.0000     0.0000 ca         1 6JQ      -0.136300
      2 C2           1.3820     0.0000     0.0000 ca         1 6JQ      -0.064000
      3 C6           4.1240    -0.3950     4.9060 ca         1 6JQ      -0.167600
      4 C9           5.6110    -0.1730     7.2400 ca         1 6JQ       0.094100
      5 C12          6.1550    -0.8140     6.1290 ca         1 6JQ       0.055100
      6 C15         -0.6960     0.0010     1.2020 ca         1 6JQ      -0.072400
      7 C18         -4.9370    -0.1380     1.0430 ca         1 6JQ      -0.084000
      8 C21         -9.0450    -1.6050     2.8060 ca         1 6JQ       0.396600
      9 C29         -7.0690    -2.2030     4.0070 ca         1 6JQ      -0.040000
     10 C30         -6.3300    -1.5150     3.0240 ca         1 6JQ      -0.174300
     11 C31         -4.9330    -1.4380     3.0880 ca         1 6JQ       0.004000
     12 C16         -2.7690    -0.6660     2.1590 c          1 6JQ       0.587700
     13 N1          -2.0940     0.0000     1.2020 ns         1 6JQ      -0.032100
     14 C14         -0.0020     0.0010     2.4040 ca         1 6JQ      -0.144000
     15 C4           1.3850     0.0000     2.4010 ca         1 6JQ      -0.075400
     16 N            2.0880     0.0010     3.6090 ns         1 6JQ      -0.024100
     17 C5           3.3330    -0.5110     3.6650 c          1 6JQ       0.589700
     18 C13          5.4160    -0.9250     4.9660 ca         1 6JQ      -0.034000
     19 O2           7.4060    -1.3480     6.1770 os         1 6JQ      -0.294900
     20 C11          8.2550    -0.9030     7.2400 c3         1 6JQ       0.167400
     21 C10          7.4470    -0.9320     8.5450 c3         1 6JQ       0.170400
     22 O1           6.3210    -0.0610     8.3930 os         1 6JQ      -0.299900
     23 C8           4.3300     0.3620     7.1770 ca         1 6JQ      -0.114000
     24 C7           3.5870     0.2500     6.0210 ca         1 6JQ      -0.083000
     25 O            3.8060    -1.0680     2.6930 o          1 6JQ      -0.636100
     26 C3           2.0750     0.0000     1.1950 ca         1 6JQ      -0.124000
     27 C           -0.7530     0.0070    -1.3050 c3         1 6JQ       0.066200
     28 C17         -4.2430    -0.7520     2.1000 ca         1 6JQ      -0.172600
     29 C20         -7.0220    -0.8880     1.9560 ca         1 6JQ       0.393600
     30 C19         -6.2910    -0.2000     0.9700 ca         1 6JQ      -0.144300
     31 C28         -8.4290    -2.2420     3.8800 ca         1 6JQ      -0.220300
     32 N2          -8.3550    -0.9610     1.8950 nb         1 6JQ      -0.567000
     33 H1           1.9220    -0.0000    -0.9390 ha         1 6JQ       0.107000
     34 H2          -4.3840     0.3950     0.2790 ha         1 6JQ       0.101000
     35 H4          -6.5730    -2.6930     4.8360 ha         1 6JQ       0.114000
     36 H5          -4.3960    -1.9110     3.9010 ha         1 6JQ       0.130000
     37 H6          -2.5940     0.5320     0.5160 hn         1 6JQ       0.176500
     38 H7          -0.5430     0.0010     3.3430 ha         1 6JQ       0.148000
     39 H8           1.6260     0.2770     4.4530 hn         1 6JQ       0.173500
     40 H9           5.8290    -1.4440     4.1100 ha         1 6JQ       0.140000
     41 H10          9.1090    -1.5650     7.3260 h1         1 6JQ       0.026200
     42 H11          8.5890     0.1080     7.0410 h1         1 6JQ       0.026200
     43 H12          8.0680    -0.5680     9.3540 h1         1 6JQ       0.027700
     44 H13          7.0920    -1.9410     8.7180 h1         1 6JQ       0.027700
     45 H14          3.9100     0.8630     8.0410 ha         1 6JQ       0.118000
     46 H15          2.5870     0.6640     5.9780 ha         1 6JQ       0.104000
     47 H16          3.1590    -0.0000     1.1910 ha         1 6JQ       0.153000
     48 H17         -0.0530    -0.0970    -2.1260 hc         1 6JQ       0.006033
     49 H18         -1.2910     0.9420    -1.4060 hc         1 6JQ       0.006033
     50 H19         -1.4550    -0.8180    -1.3220 hc         1 6JQ       0.006033
     51 H20         -6.8100     0.2790     0.1480 ha         1 6JQ       0.120000
     52 H21         -9.0270    -2.7660     4.6160 ha         1 6JQ       0.117000
     53 C23        -11.0990    -0.2320     2.5890 c3         1 6JQ      -0.033400
     54 C24        -12.6230    -0.2840     2.4680 c3         1 6JQ       0.153800
     55 N3         -13.1540     1.0830     2.3750 n3         1 6JQ      -0.545600
     56 C26        -14.5850     1.0710     2.0200 c3         1 6JQ       0.150800
     57 C27        -15.3370     1.8430     3.1250 c3         1 6JQ      -0.036400
     58 C32        -14.2280     2.7330     3.7460 c3         1 6JQ      -0.036400
     59 C33        -12.9930     1.8030     3.6560 c3         1 6JQ       0.150800
     60 H3         -10.8200    -2.2110     1.7980 hc         1 6JQ       0.022700
     61 H22        -10.9620    -2.1440     3.5600 hc         1 6JQ       0.022700
     62 H23        -10.8260     0.3230     3.4780 hc         1 6JQ       0.031200
     63 H24        -10.6840     0.2560     1.7160 hc         1 6JQ       0.031200
     64 H25        -12.8970    -0.8390     1.5790 h1         1 6JQ       0.007200
     65 H26        -13.0380    -0.7730     3.3410 h1         1 6JQ       0.007200
     66 H27        -14.7300     1.5610     1.0650 h1         1 6JQ       0.014950
     67 H28        -14.9440     0.0500     1.9760 h1         1 6JQ       0.014950
     68 H29        -15.7350     1.1590     3.8640 hc         1 6JQ       0.019700
     69 H30        -16.1210     2.4550     2.6960 hc         1 6JQ       0.019700
     70 H31        -14.4570     2.9710     4.7770 hc         1 6JQ       0.019700
     71 H32        -14.0790     3.6300     3.1570 hc         1 6JQ       0.019700
     72 H33        -12.9890     1.1020     4.4820 h1         1 6JQ       0.014950
     73 H34        -12.0810     2.3880     3.6450 h1         1 6JQ       0.014950
     74 C22        -10.5470    -1.6550     2.6870 c3         1 6JQ      -0.073700
     75 O3          -2.1640    -1.1950     3.0720 o          1 6JQ      -0.645100
@<TRIPOS>BOND
     1     1     2 ar  
     2     1     6 ar  
     3     1    27 1   
     4     2    26 ar  
     5     2    33 1   
     6     3    17 1   
     7     3    18 ar  
     8     3    24 ar  
     9     4     5 ar  
    10     4    22 1   
    11     4    23 ar  
    12     5    18 ar  
    13     5    19 1   
    14     6    13 1   
    15     6    14 ar  
    16     7    28 ar  
    17     7    30 ar  
    18     7    34 1   
    19     8    31 ar  
    20     8    32 ar  
    21     8    74 1   
    22     9    10 ar  
    23     9    31 ar  
    24     9    35 1   
    25    10    11 ar  
    26    10    29 ar  
    27    11    28 ar  
    28    11    36 1   
    29    12    13 1   
    30    12    28 1   
    31    12    75 2   
    32    13    37 1   
    33    14    15 ar  
    34    14    38 1   
    35    15    16 1   
    36    15    26 ar  
    37    16    17 1   
    38    16    39 1   
    39    17    25 2   
    40    18    40 1   
    41    19    20 1   
    42    20    21 1   
    43    20    41 1   
    44    20    42 1   
    45    21    22 1   
    46    21    43 1   
    47    21    44 1   
    48    23    24 ar  
    49    23    45 1   
    50    24    46 1   
    51    26    47 1   
    52    27    48 1   
    53    27    49 1   
    54    27    50 1   
    55    29    30 ar  
    56    29    32 ar  
    57    30    51 1   
    58    31    52 1   
    59    53    54 1   
    60    53    62 1   
    61    53    63 1   
    62    53    74 1   
    63    54    55 1   
    64    54    64 1   
    65    54    65 1   
    66    55    56 1   
    67    55    59 1   
    68    56    57 1   
    69    56    66 1   
    70    56    67 1   
    71    57    58 1   
    72    57    68 1   
    73    57    69 1   
    74    58    59 1   
    75    58    70 1   
    76    58    71 1   
    77    59    72 1   
    78    59    73 1   
    79    60    74 1   
    80    61    74 1   
@<TRIPOS>SUBSTRUCTURE
     1 6JQ         1 TEMP              0 ****  ****    0 ROOT
