@<TRIPOS>MOLECULE
6JR
   47    52     1     0     0
SMALL
bcc


@<TRIPOS>ATOM
      1 N12          0.0000     0.0000     0.0000 n          1 6JR       0.300000
      2 C15          2.7540     0.1610     7.0030 c3         1 6JR       0.065100
      3 C20          3.4670     0.0020     2.9220 cc         1 6JR       0.245400
      4 C21          2.0580     0.0000     1.2760 cd         1 6JR       0.171800
      5 C22          1.3490     0.0000     0.0000 c          1 6JR       0.431800
      6 C24         -0.9120    -0.0020    -1.0290 cc         1 6JR      -0.370600
      7 C26         -3.4370    -0.0050    -1.1870 ca         1 6JR      -0.113500
      8 C28         -4.6370    -0.0040    -0.4780 ca         1 6JR      -0.085000
      9 P01          3.1440    -1.8890     9.0970 p5         1 6JR       1.212500
     10 O02          2.7740     0.8280     5.7430 os         1 6JR      -0.379600
     11 O03          2.1860    -2.0210     7.7820 os         1 6JR      -0.411200
     12 O04          3.7030    -0.3650     9.1200 os         1 6JR      -0.444200
     13 O05          0.2280    -1.4470     5.9740 oh         1 6JR      -0.549800
     14 O06          4.3660    -2.9320     8.9950 oh         1 6JR      -0.653400
     15 O07          2.3570    -2.1470    10.3230 o          1 6JR      -0.596300
     16 O08          1.9660    -0.0010    -1.0500 o          1 6JR      -0.592500
     17 N09          2.2170     0.0020     3.4730 na         1 6JR       0.242100
     18 N10          3.3690     0.0010     1.6240 nd         1 6JR      -0.501000
     19 N11         -0.0520    -0.0090     2.3890 na         1 6JR      -0.207300
     20 N13         -1.9860    -0.0050     0.8840 nd         1 6JR      -0.603000
     21 C14          2.6160    -1.3330     6.6040 c3         1 6JR       0.172100
     22 C16          1.5590    -1.2420     5.4960 c3         1 6JR       0.134100
     23 C17          1.7310     0.2010     4.9580 c3         1 6JR       0.165800
     24 C18          3.9800     0.3280     7.8780 c3         1 6JR       0.283400
     25 C19          1.3180     0.0010     2.4530 cc         1 6JR      -0.295000
     26 C23         -0.7020    -0.0050     1.1700 cc         1 6JR       0.292400
     27 C25         -2.1440    -0.0020    -0.4620 cd         1 6JR       0.385800
     28 C27         -3.4580    -0.0120    -2.5800 ca         1 6JR      -0.085000
     29 C29         -4.6650    -0.0200    -3.2500 ca         1 6JR      -0.103500
     30 C30         -5.8380    -0.0070    -1.1580 ca         1 6JR      -0.103500
     31 C31         -5.8520    -0.0190    -2.5410 ca         1 6JR      -0.098000
     32 H151         1.8750     0.4680     7.5560 h1         1 6JR       0.059700
     33 H201         4.3910     0.1510     3.4670 h5         1 6JR       0.035100
     34 H241        -0.6920    -0.1850    -2.0740 h4         1 6JR       0.174000
     35 H281        -4.6270     0.0060     0.6050 ha         1 6JR       0.113500
     36 H051        -0.0970    -2.2720     5.6550 ho         1 6JR       0.409000
     37 H061         4.4390    -3.4110     9.8040 ho         1 6JR       0.462000
     38 H3          -0.4190     0.7230     2.9650 hn         1 6JR       0.260800
     39 H141         3.5520    -1.7280     6.2290 h1         1 6JR       0.030700
     40 H161         1.8120    -1.9650     4.7300 h1         1 6JR       0.028700
     41 H171         0.8040     0.7490     5.0750 h2         1 6JR       0.072700
     42 H181         4.1540     1.3790     8.0730 h1         1 6JR       0.013700
     43 H182         4.8430    -0.1130     7.3940 h1         1 6JR       0.013700
     44 H271        -2.5290    -0.0130    -3.1370 ha         1 6JR       0.113500
     45 H291        -4.6820    -0.0280    -4.3330 ha         1 6JR       0.103000
     46 H301        -6.7710    -0.0060    -0.6080 ha         1 6JR       0.103000
     47 H311        -6.7970    -0.0230    -3.0710 ha         1 6JR       0.101000
@<TRIPOS>BOND
     1     1     5 1   
     2     1     6 1   
     3     1    26 1   
     4     2    10 1   
     5     2    21 1   
     6     2    24 1   
     7     2    32 1   
     8     3    17 1   
     9     3    18 2   
    10     3    33 1   
    11     4     5 1   
    12     4    18 1   
    13     4    25 2   
    14     5    16 2   
    15     6    27 2   
    16     6    34 1   
    17     7     8 ar  
    18     7    27 1   
    19     7    28 ar  
    20     8    30 ar  
    21     8    35 1   
    22     9    11 1   
    23     9    12 1   
    24     9    14 1   
    25     9    15 2   
    26    10    23 1   
    27    11    21 1   
    28    12    24 1   
    29    13    22 1   
    30    13    36 1   
    31    14    37 1   
    32    17    23 1   
    33    17    25 1   
    34    19    25 1   
    35    19    26 1   
    36    19    38 1   
    37    20    26 2   
    38    20    27 1   
    39    21    22 1   
    40    21    39 1   
    41    22    23 1   
    42    22    40 1   
    43    23    41 1   
    44    24    42 1   
    45    24    43 1   
    46    28    29 ar  
    47    28    44 1   
    48    29    31 ar  
    49    29    45 1   
    50    30    31 ar  
    51    30    46 1   
    52    31    47 1   
@<TRIPOS>SUBSTRUCTURE
     1 6JR         1 TEMP              0 ****  ****    0 ROOT
