@<TRIPOS>MOLECULE
molecule
   37    39     1     0     0
SMALL
bcc


@<TRIPOS>ATOM
      1 C5           0.0000     0.0000     0.0000 cc         1 6JU      -0.133400
      2 C4           1.3420     0.0000     0.0000 cd         1 6JU      -0.082100
      3 C6          -0.4290     0.0080     1.4010 ca         1 6JU      -0.089800
      4 C7          -1.6720     0.0180     2.0350 ca         1 6JU      -0.049000
      5 C8          -1.7360     0.0300     3.4100 ca         1 6JU      -0.045900
      6 Br          -3.4170     0.0430     4.2740 br         1 6JU      -0.104100
      7 C9          -0.5710     0.0340     4.1670 ca         1 6JU      -0.084000
      8 C10          0.6640     0.0250     3.5570 ca         1 6JU      -0.137000
      9 C11          0.7510     0.0120     2.1680 ca         1 6JU      -0.012200
     10 N3           1.8090     0.0000     1.2860 na         1 6JU      -0.057400
     11 C12          3.2230    -0.0000     1.6680 c3         1 6JU      -0.010700
     12 C13          3.6720    -1.4150     1.9320 c          1 6JU       0.637100
     13 O2           2.8860    -2.3320     1.8120 o          1 6JU      -0.539100
     14 N1           4.9450    -1.6610     2.3000 ns         1 6JU      -0.475400
     15 O14          5.3660    -2.9900     2.5480 oh         1 6JU      -0.356100
     16 H2           1.9640    -0.0000    -0.8870 h4         1 6JU       0.167000
     17 H3          -2.5780    -0.1000     1.4520 ha         1 6JU       0.143000
     18 H4          -0.6350     0.0440     5.2490 ha         1 6JU       0.143000
     19 H5           1.5660     0.0280     4.1570 ha         1 6JU       0.128000
     20 H6           3.8150     0.4220     0.8640 h1         1 6JU       0.076700
     21 H7           3.3550     0.5940     2.5640 h1         1 6JU       0.076700
     22 H8           5.5960    -0.9060     2.3840 hn         1 6JU       0.316500
     23 H9           6.2650    -2.9870     2.8300 ho         1 6JU       0.400000
     24 C1          -0.8960    -0.0000    -1.2110 c3         1 6JU       0.041100
     25 C2          -1.2930     1.4160    -1.5430 ca         1 6JU      -0.076300
     26 C3          -0.5160     2.1670    -2.4040 ca         1 6JU      -0.123000
     27 C14         -0.8810     3.4660    -2.7080 ca         1 6JU      -0.126000
     28 C15         -2.0220     4.0130    -2.1520 ca         1 6JU      -0.132000
     29 C16         -2.7990     3.2600    -1.2910 ca         1 6JU      -0.126000
     30 C17         -2.4380     1.9600    -0.9890 ca         1 6JU      -0.123000
     31 H1          -0.3680    -0.4340    -2.0520 hc         1 6JU       0.055700
     32 H10         -1.7840    -0.5850    -1.0030 hc         1 6JU       0.055700
     33 H11          0.3780     1.7390    -2.8410 ha         1 6JU       0.128500
     34 H12         -0.2720     4.0550    -3.3830 ha         1 6JU       0.128000
     35 H13         -2.3070     5.0310    -2.3890 ha         1 6JU       0.128000
     36 H14         -3.6950     3.6880    -0.8560 ha         1 6JU       0.128000
     37 H15         -3.0470     1.3710    -0.3150 ha         1 6JU       0.128500
@<TRIPOS>BOND
     1     6     5 1   
     2     5     7 ar  
     3     5     4 ar  
     4     7     8 ar  
     5     4     3 ar  
     6     8     9 ar  
     7     3     9 ar  
     8     3     1 1   
     9     9    10 1   
    10     1     2 2   
    11    15    14 1   
    12    10     2 1   
    13    10    11 1   
    14    14    12 1   
    15    12    11 1   
    16    12    13 2   
    17     2    16 1   
    18     4    17 1   
    19     7    18 1   
    20     8    19 1   
    21    11    20 1   
    22    11    21 1   
    23    14    22 1   
    24    15    23 1   
    25     1    24 1   
    26    24    25 1   
    27    25    26 ar  
    28    26    27 ar  
    29    27    28 ar  
    30    28    29 ar  
    31    29    30 ar  
    32    30    25 ar  
    33    24    31 1   
    34    24    32 1   
    35    26    33 1   
    36    27    34 1   
    37    28    35 1   
    38    29    36 1   
    39    30    37 1   
@<TRIPOS>SUBSTRUCTURE
     1 6JU         1 TEMP              0 ****  ****    0 ROOT
