@<TRIPOS>MOLECULE
6JU
   37    39     1     0     0
SMALL
bcc


@<TRIPOS>ATOM
      1 C5           0.0000     0.0000     0.0000 cc         1 6JU      -0.132400
      2 C4           1.3420     0.0000     0.0000 cd         1 6JU      -0.240100
      3 C6          -0.4290     0.0080     1.4010 ca         1 6JU      -0.085800
      4 C7          -1.6720     0.0180     2.0350 ca         1 6JU      -0.026000
      5 C8          -1.7360     0.0300     3.4100 ca         1 6JU       0.011100
      6 Br          -3.4170     0.0430     4.2740 br         1 6JU      -0.145100
      7 C9          -0.5710     0.0340     4.1670 ca         1 6JU      -0.070000
      8 C10          0.6640     0.0250     3.5570 ca         1 6JU      -0.095000
      9 C11          0.7510     0.0120     2.1680 ca         1 6JU      -0.191200
     10 N3           1.8090     0.0000     1.2860 na         1 6JU       0.422600
     11 C12          3.2230    -0.0000     1.6680 c3         1 6JU      -0.104700
     12 C13          3.6720    -1.4150     1.9320 c          1 6JU       0.539100
     13 O2           2.8860    -2.3320     1.8120 o          1 6JU      -0.589100
     14 N1           4.9450    -1.6610     2.3000 ns         1 6JU      -0.051400
     15 O14          5.3660    -2.9900     2.5480 oh         1 6JU      -0.432100
     16 H2           1.9640    -0.0000    -0.8870 h4         1 6JU       0.141000
     17 H3          -2.5780    -0.1000     1.4520 ha         1 6JU       0.115000
     18 H4          -0.6350     0.0440     5.2490 ha         1 6JU       0.113000
     19 H5           1.5660     0.0280     4.1570 ha         1 6JU       0.099000
     20 H6           3.8150     0.4220     0.8640 h1         1 6JU       0.042700
     21 H7           3.3550     0.5940     2.5640 h1         1 6JU       0.042700
     22 H8           5.5960    -0.9060     2.3840 hn         1 6JU       0.153500
     23 H9           6.2650    -2.9870     2.8300 ho         1 6JU       0.394000
     24 C1          -0.8960    -0.0000    -1.2110 c3         1 6JU       0.125100
     25 C2          -1.2930     1.4160    -1.5430 ca         1 6JU      -0.083300
     26 C3          -0.5160     2.1670    -2.4040 ca         1 6JU      -0.098000
     27 C14         -0.8810     3.4660    -2.7080 ca         1 6JU      -0.100000
     28 C15         -2.0220     4.0130    -2.1520 ca         1 6JU      -0.107000
     29 C16         -2.7990     3.2600    -1.2910 ca         1 6JU      -0.100000
     30 C17         -2.4380     1.9600    -0.9890 ca         1 6JU      -0.098000
     31 H1          -0.3680    -0.4340    -2.0520 hc         1 6JU       0.019700
     32 H10         -1.7840    -0.5850    -1.0030 hc         1 6JU       0.019700
     33 H11          0.3780     1.7390    -2.8410 ha         1 6JU       0.105000
     34 H12         -0.2720     4.0550    -3.3830 ha         1 6JU       0.100500
     35 H13         -2.3070     5.0310    -2.3890 ha         1 6JU       0.101000
     36 H14         -3.6950     3.6880    -0.8560 ha         1 6JU       0.100500
     37 H15         -3.0470     1.3710    -0.3150 ha         1 6JU       0.105000
@<TRIPOS>BOND
     1     1     2 2   
     2     1     3 1   
     3     1    24 1   
     4     2    10 1   
     5     2    16 1   
     6     3     4 ar  
     7     3     9 ar  
     8     4     5 ar  
     9     4    17 1   
    10     5     6 1   
    11     5     7 ar  
    12     7     8 ar  
    13     7    18 1   
    14     8     9 ar  
    15     8    19 1   
    16     9    10 1   
    17    10    11 1   
    18    11    12 1   
    19    11    20 1   
    20    11    21 1   
    21    12    13 2   
    22    12    14 1   
    23    14    15 1   
    24    14    22 1   
    25    15    23 1   
    26    24    25 1   
    27    24    31 1   
    28    24    32 1   
    29    25    26 ar  
    30    25    30 ar  
    31    26    27 ar  
    32    26    33 1   
    33    27    28 ar  
    34    27    34 1   
    35    28    29 ar  
    36    28    35 1   
    37    29    30 ar  
    38    29    36 1   
    39    30    37 1   
@<TRIPOS>SUBSTRUCTURE
     1 6JU         1 TEMP              0 ****  ****    0 ROOT
