@<TRIPOS>MOLECULE
6JV
   62    65     1     0     0
SMALL
bcc


@<TRIPOS>ATOM
      1 C2           0.0000     0.0000     0.0000 cc         1 6JV       0.198400
      2 C3           1.3860     0.0000     0.0000 cd         1 6JV      -0.148700
      3 C4           2.0680     0.0000     1.2430 c          1 6JV       0.637100
      4 C6          -0.0140    -0.0080     2.3210 cd         1 6JV       0.320800
      5 N1          -0.6540    -0.0040     1.1920 nc         1 6JV      -0.482100
      6 C8           0.4270    -0.0020    -2.3160 cd         1 6JV       0.013900
      7 C9          -0.5300    -0.0010    -1.3550 cc         1 6JV      -0.165600
      8 C10         -4.6020    -0.7340    -2.3100 ca         1 6JV      -0.099000
      9 C11         -5.9450    -0.8510    -2.5880 ca         1 6JV      -0.101000
     10 C12         -6.4560    -0.3560    -3.7910 ca         1 6JV      -0.133600
     11 C13         -5.6020     0.2580    -4.7100 ca         1 6JV      -0.126000
     12 C14         -4.2550     0.3730    -4.4270 ca         1 6JV       0.103100
     13 O74          3.2870    -0.0000     1.2830 o          1 6JV      -0.671500
     14 N5           1.3420     0.0010     2.3800 ns         1 6JV       0.009600
     15 S7           1.9920    -0.0010    -1.6490 ss         1 6JV      -0.125800
     16 C18         -1.9700    -0.0020    -1.6550 c          1 6JV       0.588700
     17 O19         -2.7800    -0.0010    -0.7470 o          1 6JV      -0.606100
     18 N20         -2.3910    -0.0010    -2.9350 ns         1 6JV      -0.013100
     19 C21         -3.7510    -0.1190    -3.2210 ca         1 6JV      -0.099400
     20 C22         -4.0050     1.4550    -6.5290 c3         1 6JV       0.246700
     21 C17         -7.8960    -0.4820    -4.0900 c          1 6JV       0.597700
     22 O16         -8.3400    -0.0500    -5.1370 o          1 6JV      -0.657100
     23 N23         -8.7200    -1.0740    -3.2020 ns         1 6JV      -0.199900
     24 C24        -10.1490    -1.1990    -3.5000 c3         1 6JV       0.052000
     25 C25        -10.8520    -1.9030    -2.3380 c3         1 6JV      -0.053400
     26 C26        -12.3450    -2.0330    -2.6480 c3         1 6JV       0.161800
     27 N27        -13.0190    -2.7110    -1.5320 n3         1 6JV      -0.546600
     28 C32        -14.4800    -2.6440    -1.6830 c3         1 6JV       0.150300
     29 C31        -15.1440    -3.2890    -0.4640 c3         1 6JV       0.154800
     30 N30        -14.6930    -4.6830    -0.3430 n3         1 6JV      -0.549600
     31 C33        -15.3670    -5.3590     0.7730 c3         1 6JV       0.189100
     32 C29        -13.2320    -4.7480    -0.1930 c3         1 6JV       0.154800
     33 C28        -12.5680    -4.1040    -1.4120 c3         1 6JV       0.150300
     34 H1          -0.5790    -0.0080     3.2450 h5         1 6JV       0.011800
     35 H2           0.2200    -0.0030    -3.3800 h4         1 6JV       0.154000
     36 H3          -4.2080    -1.1170    -1.3760 ha         1 6JV       0.161000
     37 H4          -6.6060    -1.3290    -1.8750 ha         1 6JV       0.105000
     38 H5          -5.9940     0.6410    -5.6450 ha         1 6JV       0.145000
     39 H6           1.8040    -0.0020     3.2680 hn         1 6JV       0.186500
     40 H7          -1.7250     0.0390    -3.6810 hn         1 6JV       0.174500
     41 H8          -4.7590     2.1970    -6.2940 h1         1 6JV       0.002033
     42 H9          -3.2480     1.8980    -7.1660 h1         1 6JV       0.002033
     43 H10         -4.4660     0.6210    -7.0440 h1         1 6JV       0.002033
     44 H11         -8.3590    -1.4090    -2.3310 hn         1 6JV       0.182500
     45 H12        -10.2800    -1.7780    -4.4060 h1         1 6JV       0.026200
     46 H13        -10.5770    -0.2130    -3.6360 h1         1 6JV       0.026200
     47 H14        -10.7210    -1.3240    -1.4320 hc         1 6JV       0.025700
     48 H15        -10.4240    -2.8890    -2.2010 hc         1 6JV       0.025700
     49 H16        -12.7730    -1.0470    -2.7840 h1         1 6JV       0.012700
     50 H17        -12.4760    -2.6120    -3.5550 h1         1 6JV       0.012700
     51 H19        -14.7870    -1.6080    -1.7550 h1         1 6JV       0.015700
     52 H20        -14.7750    -3.1780    -2.5780 h1         1 6JV       0.015700
     53 H21        -16.2200    -3.2680    -0.5880 h1         1 6JV       0.013700
     54 H22        -14.8670    -2.7410     0.4290 h1         1 6JV       0.013700
     55 H24        -15.0420    -6.3920     0.8190 h1         1 6JV       0.000033
     56 H25        -15.1180    -4.8600     1.7010 h1         1 6JV       0.000033
     57 H26        -16.4390    -5.3250     0.6200 h1         1 6JV       0.000033
     58 H27        -12.9380    -4.2150     0.7020 h1         1 6JV       0.013700
     59 H28        -12.9240    -5.7840    -0.1210 h1         1 6JV       0.013700
     60 H29        -12.8450    -4.6510    -2.3040 h1         1 6JV       0.015700
     61 H30        -11.4920    -4.1240    -1.2880 h1         1 6JV       0.015700
     62 O15         -3.4210     0.9700    -5.3180 os         1 6JV      -0.324900
@<TRIPOS>BOND
     1     1     2 2   
     2     1     5 1   
     3     1     7 1   
     4     2     3 1   
     5     2    15 1   
     6     3    13 2   
     7     3    14 1   
     8     4     5 2   
     9     4    14 1   
    10     4    34 1   
    11     6     7 2   
    12     6    15 1   
    13     6    35 1   
    14     7    16 1   
    15     8     9 ar  
    16     8    19 ar  
    17     8    36 1   
    18     9    10 ar  
    19     9    37 1   
    20    10    11 ar  
    21    10    21 1   
    22    11    12 ar  
    23    11    38 1   
    24    12    19 ar  
    25    12    62 1   
    26    14    39 1   
    27    16    17 2   
    28    16    18 1   
    29    18    19 1   
    30    18    40 1   
    31    20    41 1   
    32    20    42 1   
    33    20    43 1   
    34    20    62 1   
    35    21    22 2   
    36    21    23 1   
    37    23    24 1   
    38    23    44 1   
    39    24    25 1   
    40    24    45 1   
    41    24    46 1   
    42    25    26 1   
    43    25    47 1   
    44    25    48 1   
    45    26    27 1   
    46    26    49 1   
    47    26    50 1   
    48    27    28 1   
    49    27    33 1   
    50    28    29 1   
    51    28    51 1   
    52    28    52 1   
    53    29    30 1   
    54    29    53 1   
    55    29    54 1   
    56    30    31 1   
    57    30    32 1   
    58    31    55 1   
    59    31    56 1   
    60    31    57 1   
    61    32    33 1   
    62    32    58 1   
    63    32    59 1   
    64    33    60 1   
    65    33    61 1   
@<TRIPOS>SUBSTRUCTURE
     1 6JV         1 TEMP              0 ****  ****    0 ROOT
