@<TRIPOS>MOLECULE
molecule
   62    65     1     0     0
SMALL
bcc


@<TRIPOS>ATOM
      1 C2           0.0000     0.0000     0.0000 cc         1 6JV       0.235400
      2 C3           1.3860     0.0000     0.0000 cd         1 6JV      -0.207700
      3 C4           2.0680     0.0000     1.2430 c          1 6JV       0.731100
      4 C6          -0.0140    -0.0080     2.3210 cc         1 6JV       0.502800
      5 N1          -0.6540    -0.0040     1.1920 nd         1 6JV      -0.601100
      6 C8           0.4270    -0.0020    -2.3160 cd         1 6JV      -0.081100
      7 C9          -0.5300    -0.0010    -1.3550 cc         1 6JV      -0.160600
      8 C10         -4.6020    -0.7340    -2.3100 ca         1 6JV      -0.120000
      9 C11         -5.9450    -0.8510    -2.5880 ca         1 6JV      -0.122000
     10 C12         -6.4560    -0.3560    -3.7910 ca         1 6JV      -0.133600
     11 C13         -5.6020     0.2580    -4.7100 ca         1 6JV      -0.142000
     12 C14         -4.2550     0.3730    -4.4270 ca         1 6JV       0.091100
     13 O74          3.2870    -0.0000     1.2830 o          1 6JV      -0.635500
     14 N5           1.3420     0.0010     2.3800 ns         1 6JV      -0.462400
     15 S7           1.9920    -0.0010    -1.6490 ss         1 6JV       0.045200
     16 C18         -1.9700    -0.0020    -1.6550 c          1 6JV       0.686700
     17 O19         -2.7800    -0.0010    -0.7470 o          1 6JV      -0.565100
     18 N20         -2.3910    -0.0010    -2.9350 ns         1 6JV      -0.462100
     19 C21         -3.7510    -0.1190    -3.2210 ca         1 6JV       0.060600
     20 C22         -4.0050     1.4550    -6.5290 c3         1 6JV       0.128700
     21 C17         -7.8960    -0.4820    -4.0900 c          1 6JV       0.675700
     22 O16         -8.3400    -0.0500    -5.1370 o          1 6JV      -0.616100
     23 N23         -8.7200    -1.0740    -3.2020 ns         1 6JV      -0.583900
     24 C24        -10.1490    -1.1990    -3.5000 c3         1 6JV       0.112000
     25 C25        -10.8520    -1.9030    -2.3380 c3         1 6JV      -0.103400
     26 C26        -12.3450    -2.0330    -2.6480 c3         1 6JV       0.166800
     27 N27        -13.0190    -2.7110    -1.5320 n3         1 6JV      -0.733600
     28 C32        -14.4800    -2.6440    -1.6830 c3         1 6JV       0.162300
     29 C31        -15.1440    -3.2890    -0.4640 c3         1 6JV       0.162800
     30 N30        -14.6930    -4.6830    -0.3430 n3         1 6JV      -0.733600
     31 C33        -15.3670    -5.3590     0.7730 c3         1 6JV       0.153100
     32 C29        -13.2320    -4.7480    -0.1930 c3         1 6JV       0.162800
     33 C28        -12.5680    -4.1040    -1.4120 c3         1 6JV       0.162300
     34 H1          -0.5790    -0.0080     3.2450 h5         1 6JV       0.065800
     35 H2           0.2200    -0.0030    -3.3800 h4         1 6JV       0.179000
     36 H3          -4.2080    -1.1170    -1.3760 ha         1 6JV       0.183000
     37 H4          -6.6060    -1.3290    -1.8750 ha         1 6JV       0.130000
     38 H5          -5.9940     0.6410    -5.6450 ha         1 6JV       0.164000
     39 H6           1.8040    -0.0020     3.2680 hn         1 6JV       0.344500
     40 H7          -1.7250     0.0390    -3.6810 hn         1 6JV       0.332500
     41 H8          -4.7590     2.1970    -6.2940 h1         1 6JV       0.045367
     42 H9          -3.2480     1.8980    -7.1660 h1         1 6JV       0.045367
     43 H10         -4.4660     0.6210    -7.0440 h1         1 6JV       0.045367
     44 H11         -8.3590    -1.4090    -2.3310 hn         1 6JV       0.317500
     45 H12        -10.2800    -1.7780    -4.4060 h1         1 6JV       0.053200
     46 H13        -10.5770    -0.2130    -3.6360 h1         1 6JV       0.053200
     47 H14        -10.7210    -1.3240    -1.4320 hc         1 6JV       0.053200
     48 H15        -10.4240    -2.8890    -2.2010 hc         1 6JV       0.053200
     49 H16        -12.7730    -1.0470    -2.7840 h1         1 6JV       0.038200
     50 H17        -12.4760    -2.6120    -3.5550 h1         1 6JV       0.038200
     51 H19        -14.7870    -1.6080    -1.7550 h1         1 6JV       0.041700
     52 H20        -14.7750    -3.1780    -2.5780 h1         1 6JV       0.041700
     53 H21        -16.2200    -3.2680    -0.5880 h1         1 6JV       0.040950
     54 H22        -14.8670    -2.7410     0.4290 h1         1 6JV       0.040950
     55 H24        -15.0420    -6.3920     0.8190 h1         1 6JV       0.032033
     56 H25        -15.1180    -4.8600     1.7010 h1         1 6JV       0.032033
     57 H26        -16.4390    -5.3250     0.6200 h1         1 6JV       0.032033
     58 H27        -12.9380    -4.2150     0.7020 h1         1 6JV       0.040950
     59 H28        -12.9240    -5.7840    -0.1210 h1         1 6JV       0.040950
     60 H29        -12.8450    -4.6510    -2.3040 h1         1 6JV       0.041700
     61 H30        -11.4920    -4.1240    -1.2880 h1         1 6JV       0.041700
     62 O15         -3.4210     0.9700    -5.3180 os         1 6JV      -0.343900
@<TRIPOS>BOND
     1    31    30 1
     2    32    30 1
     3    32    33 1
     4    30    29 1
     5    33    27 1
     6    22    21 2
     7    29    28 1
     8    27    28 1
     9    27    26 1
    10    20    62 1
    11    25    26 1
    12    25    24 1
    13    21    10 1
    14    21    23 1
    15    11    10 ar
    16    11    12 ar
    17    10     9 ar
    18    23    24 1
    19    62    12 1
    20    12    19 ar
    21     9     8 ar
    22    19     8 ar
    23    19    18 1
    24     4     5 2
    25     4    14 1
    26     5     1 1
    27    14     3 1
    28    18    16 1
    29     1     2 2
    30     1     7 1
    31     3     2 1
    32     3    13 2
    33    16     7 1
    34    16    17 2
    35     2    15 1
    36     7     6 2
    37     6    15 1
    38     4    34 1
    39     6    35 1
    40     8    36 1
    41     9    37 1
    42    11    38 1
    43    14    39 1
    44    18    40 1
    45    20    41 1
    46    20    42 1
    47    20    43 1
    48    23    44 1
    49    24    45 1
    50    24    46 1
    51    25    47 1
    52    25    48 1
    53    26    49 1
    54    26    50 1
    55    28    51 1
    56    28    52 1
    57    29    53 1
    58    29    54 1
    59    31    55 1
    60    31    56 1
    61    31    57 1
    62    32    58 1
    63    32    59 1
    64    33    60 1
    65    33    61 1
@<TRIPOS>SUBSTRUCTURE
     1 6JV         1 TEMP              0 ****  ****    0 ROOT
