@<TRIPOS>MOLECULE
molecule
   25    25     1     0     0
SMALL
bcc


@<TRIPOS>ATOM
      1 C            0.0000     0.0000     0.0000 c3         1 6JW      -0.104100
      2 O            2.0470    -2.3770     1.6200 o          1 6JW      -0.575500
      3 N            0.9090    -1.2840     3.2010 ns         1 6JW      -0.574000
      4 Br           6.0770     0.1890     2.7840 br         1 6JW      -0.154400
      5 C1           1.5300     0.0000     0.0000 c3         1 6JW      -0.065400
      6 C2           2.0400     0.0000     1.4430 c3         1 6JW      -0.226000
      7 C3           3.5670     0.0810     1.4040 c3         1 6JW      -0.067400
      8 C4           4.1150     0.0830     2.8330 c3         1 6JW      -0.014000
      9 C5           1.6720    -1.3230     2.0870 c          1 6JW       0.710000
     10 C6           0.4870    -0.1290     3.7290 c          1 6JW       0.815500
     11 C7           1.5180     1.2480     2.1280 c          1 6JW       0.710000
     12 O2           1.7690     2.3530     1.6980 o          1 6JW      -0.575500
     13 N1           0.7640     1.0830     3.2360 ns         1 6JW      -0.574000
     14 O1          -0.2010    -0.1870     4.7290 o          1 6JW      -0.637500
     15 H1          -0.3610     0.9250     0.4330 hc         1 6JW       0.043700
     16 H2          -0.3610    -0.0870    -1.0180 hc         1 6JW       0.043700
     17 H3          -0.3610    -0.8380     0.5840 hc         1 6JW       0.043700
     18 H4           0.6520    -2.1430     3.6440 hn         1 6JW       0.368500
     19 H5           1.8910     0.8850    -0.5110 hc         1 6JW       0.073700
     20 H6           1.8910    -0.8850    -0.5110 hc         1 6JW       0.073700
     21 H7           3.9610    -0.7730     0.8680 hc         1 6JW       0.086200
     22 H8           3.8680     0.9930     0.9010 hc         1 6JW       0.086200
     23 H9           3.7220     0.9230     3.3940 h1         1 6JW       0.073200
     24 H10          3.8150    -0.8420     3.3100 h1         1 6JW       0.073200
     25 H11          0.4030     1.8920     3.7020 hn         1 6JW       0.368500
@<TRIPOS>BOND
     1     4     8 1
     2     8     7 1
     3     2     9 2
     4     1     5 1
     5     7     6 1
     6     9     6 1
     7     9     3 1
     8     5     6 1
     9     6    11 1
    10     3    10 1
    11    11    12 2
    12    11    13 1
    13    10    13 1
    14    10    14 2
    15     1    15 1
    16     1    16 1
    17     1    17 1
    18     3    18 1
    19     5    19 1
    20     5    20 1
    21     7    21 1
    22     7    22 1
    23     8    23 1
    24     8    24 1
    25    13    25 1
@<TRIPOS>SUBSTRUCTURE
     1 6JW         1 TEMP              0 ****  ****    0 ROOT
