@<TRIPOS>MOLECULE
molecule
   37    39     1     0     0
SMALL
bcc


@<TRIPOS>ATOM
      1 C1           0.0000     0.0000     0.0000 cc         1 6JX       0.677700
      2 C2           1.7790     0.0000     1.3220 ca         1 6JX      -0.059200
      3 C3           3.0220    -0.0000     1.9280 ca         1 6JX      -0.121000
      4 C4           3.1120    -0.0010     3.3180 ca         1 6JX       0.205400
      5 C5           4.4080    -0.0010     5.2480 cd         1 6JX       0.551500
      6 C7           9.1210    -0.0010     4.6840 c3         1 6JX       0.203600
      7 N1           1.3670     0.0000     0.0000 na         1 6JX      -0.299300
      8 N2           4.3170    -0.0010     3.9450 nc         1 6JX      -0.628100
      9 N3           5.6640    -0.0030     5.8180 ns         1 6JX      -0.467400
     10 C8          10.4010    -0.0010     5.4790 c2         1 6JX      -0.181200
     11 C10          2.0680    -0.0020     5.5620 c          1 6JX       0.728100
     12 C11          1.9300    -0.0020     4.0990 ca         1 6JX      -0.224600
     13 C12          0.6820    -0.0020     3.4870 ca         1 6JX      -0.008000
     14 C13          0.6010    -0.0010     2.0980 ca         1 6JX       0.103400
     15 N5          -0.4480    -0.0000     1.2300 nd         1 6JX      -0.665100
     16 N           -0.7910     0.0050    -1.1290 nu         1 6JX      -0.879200
     17 C           -0.1710     0.0130    -2.4560 c3         1 6JX       0.224100
     18 N4           3.3200    -0.0030     6.0740 ns         1 6JX      -0.493400
     19 O            6.6410     0.0010     3.8240 o          1 6JX      -0.522000
     20 O1           7.9860    -0.0020     5.5890 os         1 6JX      -0.440900
     21 C9          11.3800    -0.8030     5.1440 c2         1 6JX      -0.198000
     22 H1           3.9180     0.1000     1.3270 ha         1 6JX       0.152000
     23 H2           9.0840     0.8840     4.0600 h1         1 6JX       0.059700
     24 H3           9.0850    -0.8850     4.0580 h1         1 6JX       0.059700
     25 H4           1.9600     0.0000    -0.8060 hn         1 6JX       0.302700
     26 H5           5.7620    -0.0010     6.8140 hn         1 6JX       0.336500
     27 H6          10.5100     0.6620     6.3290 ha         1 6JX       0.136000
     28 H7          -0.2130    -0.1360     4.0820 ha         1 6JX       0.165000
     29 H9          -1.7880    -0.0080    -1.0420 hn         1 6JX       0.473800
     30 H10          0.4430    -0.8720    -2.5730 h1         1 6JX       0.038367
     31 H11         -0.9440     0.0180    -3.2150 h1         1 6JX       0.038367
     32 H12          0.4450     0.8970    -2.5620 h1         1 6JX       0.038367
     33 H13          3.4510    -0.0030     7.0660 hn         1 6JX       0.328500
     34 H14         12.3000    -0.8040     5.7160 ha         1 6JX       0.119000
     35 H15         11.2700    -1.4670     4.2950 ha         1 6JX       0.119000
     36 O2           1.0910    -0.0050     6.2880 o          1 6JX      -0.619500
     37 C6           6.7610    -0.0020     5.0330 c          1 6JX       0.746100
@<TRIPOS>BOND
     1    17    16 1   
     2    16     1 1   
     3     1     7 1   
     4     1    15 2   
     5     7     2 1   
     6    15    14 1   
     7     2    14 ar  
     8     2     3 ar  
     9    14    13 ar  
    10     3     4 ar  
    11    21    10 2   
    12    13    12 ar  
    13     4    12 ar  
    14     4     8 1   
    15    12    11 1   
    16    10     6 1   
    17     8     5 2   
    18     6    20 1   
    19    11    36 2   
    20    11    18 1   
    21    20    37 1   
    22     5    18 1   
    23     5     9 1   
    24    37     9 1   
    25    37    19 2   
    26     3    22 1   
    27     6    23 1   
    28     6    24 1   
    29     7    25 1   
    30     9    26 1   
    31    10    27 1   
    32    13    28 1   
    33    16    29 1   
    34    17    30 1   
    35    17    31 1   
    36    17    32 1   
    37    18    33 1   
    38    21    34 1   
    39    21    35 1   
@<TRIPOS>SUBSTRUCTURE
     1 6JX         1 TEMP              0 ****  ****    0 ROOT
