@<TRIPOS>MOLECULE
6JX
   37    39     1     0     0
SMALL
bcc


@<TRIPOS>ATOM
      1 C1           0.0000     0.0000     0.0000 cc         1 6JX       0.342700
      2 C2           1.7790     0.0000     1.3220 ca         1 6JX      -0.240200
      3 C3           3.0220    -0.0000     1.9280 ca         1 6JX      -0.077000
      4 C4           3.1120    -0.0010     3.3180 ca         1 6JX       0.149400
      5 C5           4.4080    -0.0010     5.2480 cc         1 6JX       0.194500
      6 C7           9.1210    -0.0010     4.6840 c3         1 6JX       0.287600
      7 N1           1.3670     0.0000     0.0000 na         1 6JX       0.211700
      8 N2           4.3170    -0.0010     3.9450 nd         1 6JX      -0.508100
      9 N3           5.6640    -0.0030     5.8180 ns         1 6JX      -0.015400
     10 C8          10.4010    -0.0010     5.4790 c2         1 6JX      -0.173200
     11 C10          2.0680    -0.0020     5.5620 c          1 6JX       0.639100
     12 C11          1.9300    -0.0020     4.0990 ca         1 6JX      -0.229600
     13 C12          0.6820    -0.0020     3.4870 ca         1 6JX       0.032000
     14 C13          0.6010    -0.0010     2.0980 ca         1 6JX       0.078400
     15 N5          -0.4480    -0.0000     1.2300 nd         1 6JX      -0.597100
     16 N           -0.7910     0.0050    -1.1290 nu         1 6JX      -0.468200
     17 C           -0.1710     0.0130    -2.4560 c3         1 6JX       0.196100
     18 N4           3.3200    -0.0030     6.0740 ns         1 6JX      -0.043400
     19 O            6.6410     0.0010     3.8240 o          1 6JX      -0.572000
     20 O1           7.9860    -0.0020     5.5890 os         1 6JX      -0.427900
     21 C9          11.3800    -0.8030     5.1440 c2         1 6JX      -0.140000
     22 H1           3.9180     0.1000     1.3270 ha         1 6JX       0.122000
     23 H2           9.0850    -0.8850     4.0580 h1         1 6JX       0.016700
     24 H3           9.0840     0.8840     4.0600 h1         1 6JX       0.016700
     25 H4           1.9600     0.0000    -0.8060 hn         1 6JX       0.132700
     26 H5           5.7620    -0.0010     6.8140 hn         1 6JX       0.166500
     27 H6          10.5100     0.6620     6.3290 ha         1 6JX       0.109000
     28 H7          -0.2130    -0.1360     4.0820 ha         1 6JX       0.130000
     29 H9          -1.7880    -0.0080    -1.0420 hn         1 6JX       0.312800
     30 H10         -0.9440     0.0180    -3.2150 h1         1 6JX       0.004033
     31 H11          0.4450     0.8970    -2.5620 h1         1 6JX       0.004033
     32 H12          0.4430    -0.8720    -2.5730 h1         1 6JX       0.004033
     33 H13          3.4510    -0.0030     7.0660 hn         1 6JX       0.175500
     34 H14         11.2700    -1.4670     4.2950 ha         1 6JX       0.086500
     35 H15         12.3000    -0.8040     5.7160 ha         1 6JX       0.086500
     36 O2           1.0910    -0.0050     6.2880 o          1 6JX      -0.662500
     37 C6           6.7610    -0.0020     5.0330 c          1 6JX       0.656100
@<TRIPOS>BOND
     1     1     7 1   
     2     1    15 2   
     3     1    16 1   
     4     2     3 ar  
     5     2     7 1   
     6     2    14 ar  
     7     3     4 ar  
     8     3    22 1   
     9     4     8 1   
    10     4    12 ar  
    11     5     8 2   
    12     5     9 1   
    13     5    18 1   
    14     6    10 1   
    15     6    20 1   
    16     6    23 1   
    17     6    24 1   
    18     7    25 1   
    19     9    26 1   
    20     9    37 1   
    21    10    21 2   
    22    10    27 1   
    23    11    12 1   
    24    11    18 1   
    25    11    36 2   
    26    12    13 ar  
    27    13    14 ar  
    28    13    28 1   
    29    14    15 1   
    30    16    17 1   
    31    16    29 1   
    32    17    30 1   
    33    17    31 1   
    34    17    32 1   
    35    18    33 1   
    36    19    37 2   
    37    20    37 1   
    38    21    34 1   
    39    21    35 1   
@<TRIPOS>SUBSTRUCTURE
     1 6JX         1 TEMP              0 ****  ****    0 ROOT
