@<TRIPOS>MOLECULE
6JY
   38    38     1     0     0
SMALL
bcc


@<TRIPOS>ATOM
      1 N            0.0000     0.0000     0.0000 nz         1 6JY       0.113400
      2 C            1.3750     0.0000     0.0000 c2         1 6JY       0.269100
      3 O            1.8970    -0.7460     8.2460 o          1 6JY      -0.864300
      4 O2           5.0130    -0.3050     7.1750 o          1 6JY      -0.649100
      5 C7           5.3080    -2.5630     6.6530 ca         1 6JY      -0.132600
      6 C12          4.7710    -3.7060     6.0610 ca         1 6JY      -0.065000
      7 C11          5.4950    -4.8800     6.0510 ca         1 6JY      -0.118000
      8 C10          6.7520    -4.9260     6.6280 ca         1 6JY      -0.094000
      9 C9           7.2910    -3.7960     7.2170 ca         1 6JY      -0.118000
     10 C8           6.5770    -2.6150     7.2330 ca         1 6JY      -0.065000
     11 N3           3.3150    -1.2530     6.1020 ns         1 6JY      -0.171900
     12 C4           2.5540    -0.0010     6.1100 c3         1 6JY      -0.008300
     13 C5           1.8040     0.1230     7.4120 c          1 6JY       0.966600
     14 O1           1.0340     1.1970     7.6440 o          1 6JY      -0.864300
     15 C3           1.5590    -0.0010     4.9470 c3         1 6JY      -0.270400
     16 C2           2.3250     0.0000     3.6220 c3         1 6JY       0.022600
     17 C1           1.3300     0.0000     2.4590 c3         1 6JY       0.122800
     18 N2           2.0630     0.0000     1.1900 nu         1 6JY      -0.405200
     19 N1           2.0270     0.0010    -1.1290 n2         1 6JY      -0.650100
     20 H1          -0.3340    -0.8170     0.4720 hn         1 6JY       0.228800
     21 H2          -0.3340     0.8170     0.4710 hn         1 6JY       0.228800
     22 H3           3.7870    -3.6720     5.6090 ha         1 6JY       0.114500
     23 H4           5.0780    -5.7690     5.5910 ha         1 6JY       0.099000
     24 H5           7.3170    -5.8510     6.6180 ha         1 6JY       0.096000
     25 H6           8.2750    -3.8380     7.6670 ha         1 6JY       0.099000
     26 H7           7.0000    -1.7310     7.6950 ha         1 6JY       0.114500
     27 H8           2.9090    -2.0830     5.7170 hn         1 6JY       0.169500
     28 H9           3.2330     0.8360     6.0030 h1         1 6JY       0.037700
     29 H11          2.2130     0.8480     5.1050 hc         1 6JY       0.103700
     30 H12          0.5750     0.4460     5.0230 hc         1 6JY       0.103700
     31 H13          2.9470     0.8850     3.5650 hc         1 6JY       0.016700
     32 H14          2.9480    -0.8840     3.5640 hc         1 6JY       0.016700
     33 H15          0.7070     0.8850     2.5170 h1         1 6JY       0.018700
     34 H16          0.7070    -0.8850     2.5170 h1         1 6JY       0.018700
     35 H17          3.0630    -0.0120     1.1890 hn         1 6JY       0.351800
     36 H18          1.5280     0.0010    -1.9970 hn         1 6JY       0.343400
     37 HN3         -0.3340    -0.0000    -0.9440 hn         1 6JY       0.228800
     38 C6           4.5400    -1.3000     6.6620 c          1 6JY       0.590700
@<TRIPOS>BOND
     1     1     2 1   
     2     1    20 1   
     3     1    21 1   
     4     1    37 1   
     5     2    18 1   
     6     2    19 2   
     7     3    13 1   
     8     4    38 2   
     9     5     6 ar  
    10     5    10 ar  
    11     5    38 1   
    12     6     7 ar  
    13     6    22 1   
    14     7     8 ar  
    15     7    23 1   
    16     8     9 ar  
    17     8    24 1   
    18     9    10 ar  
    19     9    25 1   
    20    10    26 1   
    21    11    12 1   
    22    11    27 1   
    23    11    38 1   
    24    12    13 1   
    25    12    15 1   
    26    12    28 1   
    27    13    14 1   
    28    15    16 1   
    29    15    29 1   
    30    15    30 1   
    31    16    17 1   
    32    16    31 1   
    33    16    32 1   
    34    17    18 1   
    35    17    33 1   
    36    17    34 1   
    37    18    35 1   
    38    19    36 1   
@<TRIPOS>SUBSTRUCTURE
     1 6JY         1 TEMP              0 ****  ****    0 ROOT
