@<TRIPOS>MOLECULE
molecule
   43    42     1     0     0
SMALL
bcc


@<TRIPOS>ATOM
      1 C1           0.0000     0.0000     0.0000 c3         1 6JZ      -0.090100
      2 C2           1.5300     0.0000     0.0000 c3         1 6JZ       0.136400
      3 O1           2.0060     0.0000     1.3470 os         1 6JZ      -0.421600
      4 C3           3.4310    -0.0000     1.4600 c3         1 6JZ       0.142400
      5 C4           3.8260     0.0000     2.9380 c3         1 6JZ       0.141400
      6 O2           3.3990    -1.2210     3.5450 os         1 6JZ      -0.409600
      7 C5           3.7200    -1.3230     4.9340 c3         1 6JZ       0.141400
      8 C6           3.2190    -2.6630     5.4760 c3         1 6JZ       0.142400
      9 O3           3.9300    -3.7290     4.8440 os         1 6JZ      -0.410600
     10 C7           3.5350    -5.0300     5.2820 c3         1 6JZ       0.142400
     11 C8           4.3570    -6.0890     4.5430 c3         1 6JZ       0.141400
     12 O4           5.7320    -5.9660     4.9120 os         1 6JZ      -0.409600
     13 C9           6.5920    -6.9130     4.2740 c3         1 6JZ       0.141400
     14 C10          8.0310    -6.6900     4.7410 c3         1 6JZ       0.142400
     15 O5           8.1290    -6.9730     6.1370 os         1 6JZ      -0.421600
     16 C11          9.4400    -6.7960     6.6770 c3         1 6JZ       0.136400
     17 C12          9.4270    -7.1240     8.1710 c3         1 6JZ      -0.090100
     18 H1          -0.3610     0.8720     0.5310 hc         1 6JZ       0.043533
     19 H1A         -0.3610     0.0240    -1.0210 hc         1 6JZ       0.043533
     20 H1B         -0.3610    -0.8960     0.4900 hc         1 6JZ       0.043533
     21 H2           1.8910    -0.8850    -0.5110 h1         1 6JZ       0.019700
     22 H2A          1.8910     0.8850    -0.5110 h1         1 6JZ       0.019700
     23 H3           3.8320     0.8840     0.9790 h1         1 6JZ       0.031700
     24 H3A          3.8310    -0.8850     0.9790 h1         1 6JZ       0.031700
     25 H4           4.9020     0.0890     3.0240 h1         1 6JZ       0.030700
     26 H4A          3.3530     0.8370     3.4380 h1         1 6JZ       0.030700
     27 H5           3.2450    -0.5140     5.4750 h1         1 6JZ       0.031700
     28 H5A          4.7940    -1.2610     5.0610 h1         1 6JZ       0.031700
     29 H6           2.1600    -2.7630     5.2690 h1         1 6JZ       0.032200
     30 H6A          3.3840    -2.7040     6.5460 h1         1 6JZ       0.032200
     31 H7           2.4830    -5.1780     5.0720 h1         1 6JZ       0.032200
     32 H7A          3.7060    -5.1200     6.3480 h1         1 6JZ       0.032200
     33 H8           3.9980    -7.0760     4.8100 h1         1 6JZ       0.031700
     34 H8A          4.2550    -5.9440     3.4750 h1         1 6JZ       0.031700
     35 H9           6.5370    -6.7850     3.2000 h1         1 6JZ       0.030700
     36 H9A          6.2790    -7.9170     4.5340 h1         1 6JZ       0.030700
     37 H10          8.3140    -5.6600     4.5600 h1         1 6JZ       0.031700
     38 H10A         8.6950    -7.3480     4.1920 h1         1 6JZ       0.031700
     39 H11          9.7530    -5.7680     6.5360 h1         1 6JZ       0.019700
     40 H11A        10.1320    -7.4560     6.1680 h1         1 6JZ       0.019700
     41 H12          9.0920    -8.1440     8.3130 hc         1 6JZ       0.043533
     42 H12A         8.7530    -6.4480     8.6830 hc         1 6JZ       0.043533
     43 H12B        10.4260    -7.0120     8.5740 hc         1 6JZ       0.043533
@<TRIPOS>BOND
     1     1     2 1   
     2     2     3 1   
     3     3     4 1   
     4     4     5 1   
     5     5     6 1   
     6     6     7 1   
     7     7     8 1   
     8     8     9 1   
     9     9    10 1   
    10    10    11 1   
    11    11    12 1   
    12    12    13 1   
    13    13    14 1   
    14    14    15 1   
    15    15    16 1   
    16    16    17 1   
    17     1    18 1   
    18     1    19 1   
    19     1    20 1   
    20     2    21 1   
    21     2    22 1   
    22     4    23 1   
    23     4    24 1   
    24     5    25 1   
    25     5    26 1   
    26     7    27 1   
    27     7    28 1   
    28     8    29 1   
    29     8    30 1   
    30    10    31 1   
    31    10    32 1   
    32    11    33 1   
    33    11    34 1   
    34    13    35 1   
    35    13    36 1   
    36    14    37 1   
    37    14    38 1   
    38    16    39 1   
    39    16    40 1   
    40    17    41 1   
    41    17    42 1   
    42    17    43 1   
@<TRIPOS>SUBSTRUCTURE
     1 6JZ         1 TEMP              0 ****  ****    0 ROOT
