@<TRIPOS>MOLECULE
6JZ
   43    42     1     0     0
SMALL
bcc


@<TRIPOS>ATOM
      1 C1         -0.9160    1.9250    0.4870 c3        1 6JZ     -0.097100
      2 C2         -0.3110    0.5690    0.2060 c3        1 6JZ      0.131400
      3 O1          0.9940    0.5700    0.7830 os        1 6JZ     -0.428600
      4 C3          1.6800   -0.6610    0.5680 c3        1 6JZ      0.126400
      5 C4          2.9810   -0.5740    1.3600 c3        1 6JZ      0.127400
      6 O2          2.8710   -1.5220    2.4210 os        1 6JZ     -0.429600
      7 C5          3.9560   -1.4290    3.3420 c3        1 6JZ      0.127400
      8 C6          3.8080   -2.6020    4.3050 c3        1 6JZ      0.127400
      9 O3          4.8350   -3.5330    3.9710 os        1 6JZ     -0.429600
     10 C7          4.7130   -4.7550    4.6950 c3        1 6JZ      0.127400
     11 C8          5.9580   -5.5750    4.3760 c3        1 6JZ      0.127400
     12 O4          6.7700   -5.5520    5.5480 os        1 6JZ     -0.429600
     13 C9          8.0470   -6.1490    5.3320 c3        1 6JZ      0.127400
     14 C10         8.7270   -6.2200    6.6950 c3        1 6JZ      0.126400
     15 O5          8.8140   -7.6020    7.0320 os        1 6JZ     -0.428600
     16 C11         9.3080   -7.8070    8.3550 c3        1 6JZ      0.131400
     17 C12         9.3690   -9.3000    8.5740 c3        1 6JZ     -0.097100
     18 H1         -0.2930    2.7310    0.0310 hc        1 6JZ      0.045033
     19 H1A        -0.9710    2.1050    1.5870 hc        1 6JZ      0.045033
     20 H1B        -1.9440    1.9670    0.0560 hc        1 6JZ      0.045033
     21 H2         -0.9240   -0.2510    0.6700 h1        1 6JZ      0.024700
     22 H2A        -0.2330    0.3820   -0.8980 h1        1 6JZ      0.024700
     23 H3          1.8950   -0.7780   -0.5270 h1        1 6JZ      0.041700
     24 H3A         1.0550   -1.5230    0.9220 h1        1 6JZ      0.041700
     25 H4          3.1260    0.4580    1.7760 h1        1 6JZ      0.043200
     26 H4A         3.8560   -0.8460    0.7130 h1        1 6JZ      0.043200
     27 H5          4.9350   -1.4820    2.7960 h1        1 6JZ      0.043200
     28 H5A         3.8850   -0.4560    3.8960 h1        1 6JZ      0.043200
     29 H6          2.7990   -3.0810    4.1980 h1        1 6JZ      0.043700
     30 H6A         3.9520   -2.2590    5.3640 h1        1 6JZ      0.043700
     31 H7          4.6430   -4.5490    5.7960 h1        1 6JZ      0.043700
     32 H7A         3.7910   -5.2950    4.3530 h1        1 6JZ      0.043700
     33 H8          6.5160   -5.1310    3.5080 h1        1 6JZ      0.043200
     34 H8A         5.6790   -6.6360    4.1420 h1        1 6JZ      0.043200
     35 H9          7.9270   -7.1750    4.8930 h1        1 6JZ      0.043200
     36 H9A         8.6400   -5.5060    4.6290 h1        1 6JZ      0.043200
     37 H10         9.7610   -5.7870    6.6410 h1        1 6JZ      0.041700
     38 H10A        8.1290   -5.6680    7.4680 h1        1 6JZ      0.041700
     39 H11         8.6160   -7.3180    9.0920 h1        1 6JZ      0.024700
     40 H11A       10.3260   -7.3420    8.4500 h1        1 6JZ      0.024700
     41 H12        10.0510   -9.7760    7.8290 hc        1 6JZ      0.045033
     42 H12A        9.7480   -9.5070    9.6030 hc        1 6JZ      0.045033
     43 H12B        8.3550   -9.7520    8.4590 hc        1 6JZ      0.045033
@<TRIPOS>BOND
     1    1    2 1   
     2    1   18 1   
     3    1   19 1   
     4    1   20 1   
     5    2    3 1   
     6    2   21 1   
     7    2   22 1   
     8    3    4 1   
     9    4    5 1   
    10    4   23 1   
    11    4   24 1   
    12    5    6 1   
    13    5   25 1   
    14    5   26 1   
    15    6    7 1   
    16    7    8 1   
    17    7   27 1   
    18    7   28 1   
    19    8    9 1   
    20    8   29 1   
    21    8   30 1   
    22    9   10 1   
    23   10   11 1   
    24   10   31 1   
    25   10   32 1   
    26   11   12 1   
    27   11   33 1   
    28   11   34 1   
    29   12   13 1   
    30   13   14 1   
    31   13   35 1   
    32   13   36 1   
    33   14   15 1   
    34   14   37 1   
    35   14   38 1   
    36   15   16 1   
    37   16   17 1   
    38   16   39 1   
    39   16   40 1   
    40   17   41 1   
    41   17   42 1   
    42   17   43 1   
@<TRIPOS>SUBSTRUCTURE
     1 6JZ         1 TEMP              0 ****  ****    0 ROOT
