@<TRIPOS>MOLECULE
molecule
   52    55     1     0     0
SMALL
bcc


@<TRIPOS>ATOM
      1 C5           0.0000     0.0000     0.0000 cc         1 6K0      -0.055100
      2 C6           1.3670     0.0000     0.0000 cd         1 6K0      -0.223400
      3 C7           2.2470     0.0010    -1.1740 c          1 6K0       0.612900
      4 C10          2.8570     2.4030    -0.7940 ca         1 6K0      -0.245300
      5 N12          4.2320     3.5510    -2.3130 nb         1 6K0      -0.666000
      6 C13          4.3460     2.4810    -3.0810 ca         1 6K0       0.559200
      7 C15          5.8250     3.6550    -4.5210 c          1 6K0       0.775100
      8 C20          7.3400     7.3340    -5.8080 ca         1 6K0      -0.160000
      9 C21          8.3950     7.3240    -6.7060 ca         1 6K0       0.135900
     10 C24          8.1780     4.9490    -6.9400 ca         1 6K0       0.113900
     11 C26          3.7030     1.2950    -2.7470 ca         1 6K0      -0.248300
     12 C28          3.0040    -0.0010     2.0890 ca         1 6K0       0.773200
     13 C2          -1.8700     0.0040     1.6580 c3         1 6K0       0.046000
     14 C3          -2.5560    -1.2410     1.0910 c3         1 6K0      -0.109600
     15 N4          -0.4560    -0.0000     1.2770 na         1 6K0      -0.145100
     16 O8           2.4060    -1.0200    -1.8150 o          1 6K0      -0.507100
     17 C9           2.9430     1.2450    -1.5770 ca         1 6K0      -0.120600
     18 C11          3.5190     3.5420    -1.2030 ca         1 6K0       0.445200
     19 O16          5.8750     4.5630    -3.7130 o          1 6K0      -0.580100
     20 N17          6.4820     3.7590    -5.6930 ns         1 6K0      -0.483100
     21 C18          7.1270     4.9570    -6.0310 ca         1 6K0       0.029600
     22 C19          6.7070     6.1540    -5.4700 ca         1 6K0      -0.093000
     23 C23          8.8130     6.1320    -7.2720 ca         1 6K0      -0.190000
     24 F25          8.5860     3.7850    -7.4930 f          1 6K0      -0.141900
     25 C27          1.7780     0.0000     1.4130 ca         1 6K0      -0.384400
     26 N29          4.1990     0.0010     1.3920 nv         1 6K0      -0.989500
     27 N30          2.9920    -0.0010     3.4200 nb         1 6K0      -0.834000
     28 C31          1.8530    -0.0020     4.0880 ca         1 6K0       0.743900
     29 N32          0.6800    -0.0140     3.4920 nb         1 6K0      -0.803000
     30 C33          0.5920    -0.0080     2.1630 ca         1 6K0       0.520800
     31 H1          -0.6240    -0.0000    -0.8860 h4         1 6K0       0.180000
     32 H2           2.2740     2.4060     0.1190 ha         1 6K0       0.158000
     33 H3           7.0120     8.2690    -5.3700 ha         1 6K0       0.155000
     34 H4           3.7990     0.4200    -3.3780 ha         1 6K0       0.155000
     35 H5          -3.5560     1.3260     1.4820 hc         1 6K0       0.047867
     36 H6          -1.9850     2.1340     1.3980 hc         1 6K0       0.047867
     37 H7          -2.5740     1.2000     0.0170 hc         1 6K0       0.047867
     38 H8          -1.9760     0.0150     2.7360 h1         1 6K0       0.095700
     39 H9          -3.5250    -1.3630     1.5580 hc         1 6K0       0.047867
     40 H10         -1.9450    -2.1130     1.2940 hc         1 6K0       0.047867
     41 H11         -2.6810    -1.1280     0.0210 hc         1 6K0       0.047867
     42 H12          3.4540     4.4420    -0.6030 h4         1 6K0       0.036100
     43 H13          5.1470     1.7600    -4.8640 hn         1 6K0       0.329500
     44 H14          6.4930     2.9870    -6.3300 hn         1 6K0       0.326500
     45 H15          5.8850     6.1640    -4.7640 ha         1 6K0       0.193000
     46 H16          9.6350     6.1260    -7.9770 ha         1 6K0       0.161000
     47 H17          4.1940    -0.0280     0.3910 hn         1 6K0       0.446300
     48 H18          5.0680    -0.0000     1.8880 hn         1 6K0       0.446300
     49 H19          1.8860    -0.0030     5.1710 h5         1 6K0       0.061100
     50 N14          5.1120     2.5450    -4.2440 ns         1 6K0      -0.560400
     51 C1          -2.5450     1.2570     1.0980 c3         1 6K0      -0.109600
     52 F22          9.0160     8.4790    -7.0300 f          1 6K0      -0.135900
@<TRIPOS>BOND
     1    26    12 1   
     2    27    12 ar  
     3    27    28 ar  
     4    12    25 ar  
     5    16     3 2   
     6    28    29 ar  
     7     3    17 1   
     8     3     2 1   
     9    25     2 1   
    10    25    30 ar  
    11    22     8 ar  
    12    22    21 ar  
    13    11    17 ar  
    14    11     6 ar  
    15     8     9 ar  
    16    17     4 ar  
    17     2     1 2   
    18     7    20 1   
    19     7    50 1   
    20     7    19 2   
    21    20    21 1   
    22    21    10 ar  
    23     6    50 1   
    24     6     5 ar  
    25    29    30 ar  
    26    30    15 1   
    27     4    18 ar  
    28     9    52 1   
    29     9    23 ar  
    30     5    18 ar  
    31    10    23 ar  
    32    10    24 1   
    33     1    15 1   
    34    15    13 1   
    35    13    14 1   
    36    13    51 1   
    37     1    31 1   
    38     4    32 1   
    39     8    33 1   
    40    11    34 1   
    41    51    35 1   
    42    51    36 1   
    43    51    37 1   
    44    13    38 1   
    45    14    39 1   
    46    14    40 1   
    47    14    41 1   
    48    18    42 1   
    49    50    43 1   
    50    20    44 1   
    51    22    45 1   
    52    23    46 1   
    53    26    47 1   
    54    26    48 1   
    55    28    49 1   
@<TRIPOS>SUBSTRUCTURE
     1 6K0         1 TEMP              0 ****  ****    0 ROOT
