@<TRIPOS>MOLECULE
6K0
   52    55     1     0     0
SMALL
bcc


@<TRIPOS>ATOM
      1 C5           0.0000     0.0000     0.0000 cc         1 6K0      -0.219100
      2 C6           1.3670     0.0000     0.0000 cd         1 6K0      -0.212400
      3 C7           2.2470     0.0010    -1.1740 c          1 6K0       0.678900
      4 C10          2.8570     2.4030    -0.7940 ca         1 6K0      -0.217300
      5 N12          4.2320     3.5510    -2.3130 nb         1 6K0      -0.531000
      6 C13          4.3460     2.4810    -3.0810 ca         1 6K0       0.360200
      7 C15          5.8250     3.6550    -4.5210 c          1 6K0       0.542100
      8 C20          7.3400     7.3340    -5.8080 ca         1 6K0      -0.118000
      9 C21          8.3950     7.3240    -6.7060 ca         1 6K0       0.108900
     10 C24          8.1780     4.9490    -6.9400 ca         1 6K0       0.082900
     11 C26          3.7030     1.2950    -2.7470 ca         1 6K0      -0.213300
     12 C28          3.0040    -0.0010     2.0890 ca         1 6K0       0.586200
     13 C2          -1.8700     0.0040     1.6580 c3         1 6K0      -0.083000
     14 C3          -2.5560    -1.2410     1.0910 c3         1 6K0      -0.010600
     15 N4          -0.4560    -0.0000     1.2770 na         1 6K0       0.338900
     16 O8           2.4060    -1.0200    -1.8150 o          1 6K0      -0.546100
     17 C9           2.9430     1.2450    -1.5770 ca         1 6K0      -0.133600
     18 C11          3.5190     3.5420    -1.2030 ca         1 6K0       0.419200
     19 O16          5.8750     4.5630    -3.7130 o          1 6K0      -0.629100
     20 N17          6.4820     3.7590    -5.6930 ns         1 6K0      -0.040100
     21 C18          7.1270     4.9570    -6.0310 ca         1 6K0      -0.106400
     22 C19          6.7070     6.1540    -5.4700 ca         1 6K0      -0.077000
     23 C23          8.8130     6.1320    -7.2720 ca         1 6K0      -0.146000
     24 F25          8.5860     3.7850    -7.4930 f          1 6K0      -0.127900
     25 C27          1.7780     0.0000     1.4130 ca         1 6K0      -0.383400
     26 N29          4.1990     0.0010     1.3920 nv         1 6K0      -0.501500
     27 N30          2.9920    -0.0010     3.4200 nb         1 6K0      -0.742000
     28 C31          1.8530    -0.0020     4.0880 ca         1 6K0       0.693900
     29 N32          0.6800    -0.0140     3.4920 nb         1 6K0      -0.691000
     30 C33          0.5920    -0.0080     2.1630 ca         1 6K0       0.306800
     31 H1          -0.6240    -0.0000    -0.8860 h4         1 6K0       0.152000
     32 H2           2.2740     2.4060     0.1190 ha         1 6K0       0.132000
     33 H3           7.0120     8.2690    -5.3700 ha         1 6K0       0.124000
     34 H4           3.7990     0.4200    -3.3780 ha         1 6K0       0.132000
     35 H5          -3.5560     1.3260     1.4820 hc         1 6K0       0.014867
     36 H6          -1.9850     2.1340     1.3980 hc         1 6K0       0.014867
     37 H7          -2.5740     1.2000     0.0170 hc         1 6K0       0.014867
     38 H8          -1.9760     0.0150     2.7360 h1         1 6K0       0.068700
     39 H9          -3.5250    -1.3630     1.5580 hc         1 6K0       0.014867
     40 H10         -1.9450    -2.1130     1.2940 hc         1 6K0       0.014867
     41 H11         -2.6810    -1.1280     0.0210 hc         1 6K0       0.014867
     42 H12          3.4540     4.4420    -0.6030 h4         1 6K0      -0.012900
     43 H13          5.1470     1.7600    -4.8640 hn         1 6K0       0.167500
     44 H14          6.4930     2.9870    -6.3300 hn         1 6K0       0.168500
     45 H15          5.8850     6.1640    -4.7640 ha         1 6K0       0.171000
     46 H16          9.6350     6.1260    -7.9770 ha         1 6K0       0.134000
     47 H17          4.1940    -0.0280     0.3910 hn         1 6K0       0.276300
     48 H18          5.0680    -0.0000     1.8880 hn         1 6K0       0.276300
     49 H19          1.8860    -0.0030     5.1710 h5         1 6K0      -0.004900
     50 N14          5.1120     2.5450    -4.2440 ns         1 6K0      -0.125400
     51 C1          -2.5450     1.2570     1.0980 c3         1 6K0      -0.010600
     52 F22          9.0160     8.4790    -7.0300 f          1 6K0      -0.124900
@<TRIPOS>BOND
     1     1     2 2   
     2     1    15 1   
     3     1    31 1   
     4     2     3 1   
     5     2    25 1   
     6     3    16 2   
     7     3    17 1   
     8     4    17 ar  
     9     4    18 ar  
    10     4    32 1   
    11     5     6 ar  
    12     5    18 ar  
    13     6    11 ar  
    14     6    50 1   
    15     7    19 2   
    16     7    20 1   
    17     7    50 1   
    18     8     9 ar  
    19     8    22 ar  
    20     8    33 1   
    21     9    23 ar  
    22     9    52 1   
    23    10    21 ar  
    24    10    23 ar  
    25    10    24 1   
    26    11    17 ar  
    27    11    34 1   
    28    12    25 ar  
    29    12    26 1   
    30    12    27 ar  
    31    13    14 1   
    32    13    15 1   
    33    13    38 1   
    34    13    51 1   
    35    14    39 1   
    36    14    40 1   
    37    14    41 1   
    38    15    30 1   
    39    18    42 1   
    40    20    21 1   
    41    20    44 1   
    42    21    22 ar  
    43    22    45 1   
    44    23    46 1   
    45    25    30 ar  
    46    26    47 1   
    47    26    48 1   
    48    27    28 ar  
    49    28    29 ar  
    50    28    49 1   
    51    29    30 ar  
    52    35    51 1   
    53    36    51 1   
    54    37    51 1   
    55    43    50 1   
@<TRIPOS>SUBSTRUCTURE
     1 6K0         1 TEMP              0 ****  ****    0 ROOT
