@<TRIPOS>MOLECULE
molecule
   53    56     1     0     0
SMALL
bcc


@<TRIPOS>ATOM
      1 C5           0.0000     0.0000     0.0000 cc         1 6K1      -0.059100
      2 C6           1.3670     0.0000     0.0000 cd         1 6K1      -0.221400
      3 C7           2.2480     0.0000    -1.1750 c          1 6K1       0.612900
      4 C10          2.8610     2.3890    -0.7850 ca         1 6K1       0.439200
      5 C13          4.3370     2.4750    -3.0830 ca         1 6K1      -0.080700
      6 C15          5.6950     1.4640    -4.7560 c          1 6K1       0.655100
      7 C17          6.4260     1.5390    -6.0710 c3         1 6K1      -0.108100
      8 C20          8.7680    -1.4140    -6.3040 ca         1 6K1      -0.117500
      9 C21          8.0120    -2.3080    -7.0400 ca         1 6K1       0.035400
     10 C24          6.2300    -0.7110    -7.1480 ca         1 6K1      -0.101000
     11 C26          1.7790     0.0000     1.4120 ca         1 6K1      -0.386400
     12 C2          -1.8700     0.0070     1.6590 c3         1 6K1       0.046000
     13 C3          -2.5500    -1.2440     1.0990 c3         1 6K1      -0.108100
     14 N4          -0.4550     0.0050     1.2780 na         1 6K1      -0.147100
     15 O8           2.4020    -1.0200    -1.8200 o          1 6K1      -0.502100
     16 C9           2.9470     1.2400    -1.5740 ca         1 6K1      -0.291900
     17 N11          3.4800     3.4960    -1.1390 nb         1 6K1      -0.678000
     18 C12          4.1990     3.5720    -2.2410 ca         1 6K1       0.405200
     19 O16          5.6340     0.4130    -4.1560 o          1 6K1      -0.571100
     20 C18          6.9860     0.1820    -6.4130 ca         1 6K1      -0.073300
     21 C19          8.2550    -0.1680    -5.9910 ca         1 6K1      -0.101000
     22 C23          6.7410    -1.9570    -7.4620 ca         1 6K1      -0.117500
     23 C25          3.7070     1.2810    -2.7480 ca         1 6K1      -0.051000
     24 C27          3.0040     0.0000     2.0880 ca         1 6K1       0.774200
     25 N28          4.2000     0.0010     1.3900 nv         1 6K1      -0.990500
     26 N29          2.9930     0.0000     3.4190 nb         1 6K1      -0.835000
     27 C30          1.8540    -0.0000     4.0870 ca         1 6K1       0.742900
     28 N31          0.6810     0.0010     3.4920 nb         1 6K1      -0.805000
     29 C32          0.5920     0.0000     2.1630 ca         1 6K1       0.520800
     30 H1          -0.6240    -0.0040    -0.8850 h4         1 6K1       0.179000
     31 H2           2.2800     2.3690     0.1290 h4         1 6K1       0.044100
     32 H3           7.2360     2.2540    -5.9940 hc         1 6K1       0.070700
     33 H4           5.7400     1.8520    -6.8490 hc         1 6K1       0.070700
     34 H5           9.7630    -1.6890    -5.9740 ha         1 6K1       0.146000
     35 H6           5.2360    -0.4350    -7.4780 ha         1 6K1       0.135500
     36 H7          -2.6330     1.1620     0.0140 hc         1 6K1       0.047867
     37 H8          -1.9600     2.1300     1.3330 hc         1 6K1       0.047867
     38 H9          -3.5380     1.3550     1.5220 hc         1 6K1       0.047867
     39 H10         -1.9250    -0.0050     2.7410 h1         1 6K1       0.095700
     40 H11         -2.6560    -1.1490     0.0250 hc         1 6K1       0.047867
     41 H12         -1.9480    -2.1150     1.3260 hc         1 6K1       0.047867
     42 H13         -3.5290    -1.3550     1.5500 hc         1 6K1       0.047867
     43 H14          4.6910     4.5040    -2.4940 h4         1 6K1       0.022100
     44 H15          5.3050     3.4630    -4.6450 hn         1 6K1       0.326500
     45 H16          8.8470     0.5320    -5.4150 ha         1 6K1       0.135500
     46 H17          6.1490    -2.6570    -8.0380 ha         1 6K1       0.146000
     47 H18          3.7950     0.4080    -3.3840 ha         1 6K1       0.195000
     48 H19          4.1950    -0.0010     0.3890 hn         1 6K1       0.447300
     49 H20          5.0690     0.0020     1.8870 hn         1 6K1       0.447300
     50 H21          1.8870    -0.0000     5.1700 h5         1 6K1       0.059100
     51 N14          5.1090     2.5660    -4.2470 ns         1 6K1      -0.475100
     52 C1          -2.5500     1.2550     1.0910 c3         1 6K1      -0.108100
     53 Cl           8.6550    -3.8720    -7.4320 cl         1 6K1      -0.108400
@<TRIPOS>BOND
     1    52    12 1   
     2    13    12 1   
     3    12    14 1   
     4    14     1 1   
     5    14    29 1   
     6     1     2 2   
     7     8    21 ar  
     8     8     9 ar  
     9    17    18 ar  
    10    17     4 ar  
    11    21    20 ar  
    12    18     5 ar  
    13     4    16 ar  
    14    29    28 ar  
    15    29    11 ar  
    16    53     9 1   
    17    19     6 2   
    18    28    27 ar  
    19     9    22 ar  
    20     6     7 1   
    21     6    51 1   
    22     5    51 1   
    23     5    23 ar  
    24    20     7 1   
    25    20    10 ar  
    26     2    11 1   
    27     2     3 1   
    28    16    23 ar  
    29    16     3 1   
    30    11    24 ar  
    31     3    15 2   
    32    22    10 ar  
    33    27    26 ar  
    34    24    26 ar  
    35    24    25 1   
    36     1    30 1   
    37     4    31 1   
    38     7    32 1   
    39     7    33 1   
    40     8    34 1   
    41    10    35 1   
    42    52    36 1   
    43    52    37 1   
    44    52    38 1   
    45    12    39 1   
    46    13    40 1   
    47    13    41 1   
    48    13    42 1   
    49    18    43 1   
    50    51    44 1   
    51    21    45 1   
    52    22    46 1   
    53    23    47 1   
    54    25    48 1   
    55    25    49 1   
    56    27    50 1   
@<TRIPOS>SUBSTRUCTURE
     1 6K1         1 TEMP              0 ****  ****    0 ROOT
