@<TRIPOS>MOLECULE
molecule
   52    55     1     0     0
SMALL
bcc


@<TRIPOS>ATOM
      1 C5           0.0000     0.0000     0.0000 cc         1 6K2      -0.220100
      2 C6           1.3660     0.0000     0.0000 cd         1 6K2      -0.136400
      3 C7           2.2470    -0.0010    -1.1740 c          1 6K2       0.613900
      4 C10          2.3120     0.4590    -3.6270 ca         1 6K2       0.482200
      5 C13         -0.0170    -0.9100    -4.0330 ca         1 6K2      -0.191700
      6 C15         -1.5480    -2.6620    -3.5350 c          1 6K2       0.612100
      7 C17         -2.8810    -3.3350    -3.7380 c3         1 6K2      -0.407100
      8 C20         -2.7200    -6.8090    -2.2710 ca         1 6K2      -0.097500
      9 C21         -3.2710    -6.6020    -1.0050 ca         1 6K2       0.047000
     10 C22         -3.3970    -7.6950    -0.0880 cg         1 6K2       0.222800
     11 C24         -3.6970    -5.3240    -0.6360 ca         1 6K2      -0.097500
     12 C26          0.4750    -0.8170    -2.7360 ca         1 6K2      -0.044000
     13 C28          2.9950    -0.0000     2.0850 ca         1 6K2       0.512200
     14 C2          -1.8740     0.0060     1.6540 c3         1 6K2      -0.281000
     15 C3          -2.5580    -1.2390     1.0860 c3         1 6K2      -0.154600
     16 N4          -0.4590     0.0000     1.2760 na         1 6K2      -0.021100
     17 O8           3.4510     0.0980    -1.0310 o          1 6K2      -0.514100
     18 C9           1.6710    -0.1200    -2.5300 ca         1 6K2      -0.325900
     19 N11          1.8020     0.3550    -4.8370 nb         1 6K2      -0.671000
     20 C12          0.6800    -0.2990    -5.0680 ca         1 6K2       0.489200
     21 O16         -0.7820    -3.0760    -2.6890 o          1 6K2      -0.716100
     22 C18         -3.0150    -4.4850    -2.7730 ca         1 6K2      -0.019300
     23 C19         -2.5960    -5.7500    -3.1470 ca         1 6K2      -0.128000
     24 N23         -3.4820    -8.5550     0.6490 n1         1 6K2      -0.324800
     25 C25         -3.5710    -4.2750    -1.5230 ca         1 6K2      -0.128000
     26 C27          1.7780     0.0000     1.4130 ca         1 6K2      -0.311400
     27 N29          2.9850    -0.0010     3.4100 nb         1 6K2      -0.756000
     28 C30          1.8480    -0.0000     4.0830 ca         1 6K2       0.696900
     29 N31          0.6740    -0.0100     3.4900 nb         1 6K2      -0.711000
     30 C32          0.5870    -0.0050     2.1640 ca         1 6K2       0.538800
     31 H1          -0.6290     0.5240    -0.7100 h4         1 6K2       0.195000
     32 H2           3.1650     0.9080    -3.1330 h4         1 6K2       0.061100
     33 H3          -3.0570    -4.0130    -2.9110 hc         1 6K2       0.196200
     34 H4          -3.4610    -2.4200    -3.7510 hc         1 6K2       0.196200
     35 H5          -2.1380    -7.6140    -2.7030 ha         1 6K2       0.162000
     36 H6          -4.1910    -5.1540     0.3130 ha         1 6K2       0.162000
     37 H7          -0.2220    -1.0890    -1.9530 ha         1 6K2       0.162000
     38 H8           4.0430     0.1300     1.8450 h4         1 6K2       0.063100
     39 H9          -3.4050     0.8980     1.6430 hc         1 6K2       0.059200
     40 H10         -2.0010     2.1890     0.9850 hc         1 6K2       0.059200
     41 H11         -2.9790     0.8460     0.1870 hc         1 6K2       0.059200
     42 H12         -0.9360    -0.2150     1.1590 h1         1 6K2       0.256700
     43 H13         -2.1760    -1.6220     0.1470 hc         1 6K2       0.059200
     44 H14         -1.9770    -1.9950     1.6010 hc         1 6K2       0.059200
     45 H15         -3.5840    -1.1510     1.4220 hc         1 6K2       0.059200
     46 H16          0.3000    -0.5450    -6.0510 h4         1 6K2       0.045100
     47 H17         -1.1840    -2.5820    -4.0960 hn         1 6K2       0.340500
     48 H18         -1.9610    -5.8600    -4.0170 ha         1 6K2       0.171500
     49 H19         -3.6690    -3.3650    -0.9440 ha         1 6K2       0.171500
     50 H20          1.8380     0.0070     5.1660 h5         1 6K2       0.068100
     51 N14         -1.2070    -1.6010    -4.2920 ns         1 6K2      -0.409100
     52 C1          -2.5470     1.2590     1.0900 c3         1 6K2      -0.154600
@<TRIPOS>BOND
     1    27    13 ar
     2    27    28 ar
     3    13    26 ar
     4    17     3 2
     5    23     8 ar
     6    23    22 ar
     7    28    29 ar
     8     8     9 ar
     9     3    18 1
    10     3     2 1
    11    26     2 1
    12    26    30 ar
    13    12    18 ar
    14    12     5 ar
    15    18     4 ar
    16     7    22 1
    17     7     6 1
    18    51     5 1
    19    51     6 1
    20     2     1 2
    21    22    25 ar
    22     5    20 ar
    23     6    21 2
    24     9    10 1
    25     9    11 ar
    26    29    30 ar
    27     4    19 ar
    28    10    24 3
    29    30    16 1
    30    20    19 ar
    31    25    11 ar
    32     1    16 1
    33    16    14 1
    34    14    15 1
    35    14    52 1
    36     1    31 1
    37     4    32 1
    38     7    33 1
    39     7    34 1
    40     8    35 1
    41    11    36 1
    42    12    37 1
    43    13    38 1
    44    52    39 1
    45    52    40 1
    46    52    41 1
    47    14    42 1
    48    15    43 1
    49    15    44 1
    50    15    45 1
    51    20    46 1
    52    51    47 1
    53    23    48 1
    54    25    49 1
    55    28    50 1
@<TRIPOS>SUBSTRUCTURE
     1 6K2         1 TEMP              0 ****  ****    0 ROOT
