@<TRIPOS>MOLECULE
6K2
   52    56     1     0     0
SMALL
bcc


@<TRIPOS>ATOM
      1 C5           0.0000     0.0000     0.0000 c2         1 6K2      -0.404000
      2 C6           1.3660     0.0000     0.0000 c2         1 6K2      -0.115000
      3 C7           2.2470    -0.0010    -1.1740 c2         1 6K2       0.399000
      4 C10          2.3120     0.4590    -3.6270 c2         1 6K2      -0.004000
      5 C13         -0.0170    -0.9100    -4.0330 c2         1 6K2      -0.156000
      6 C15         -1.5480    -2.6620    -3.5350 c3         1 6K2       0.320000
      7 C17         -2.8810    -3.3350    -3.7380 c3         1 6K2      -0.362000
      8 C20         -2.7200    -6.8090    -2.2710 ca         1 6K2      -0.063500
      9 C21         -3.2710    -6.6020    -1.0050 ca         1 6K2       0.085000
     10 C22         -3.3970    -7.6950    -0.0880 c1         1 6K2      -0.119000
     11 C24         -3.6970    -5.3240    -0.6360 ca         1 6K2      -0.063500
     12 C26          0.4750    -0.8170    -2.7360 c2         1 6K2      -0.026000
     13 C28          2.9950    -0.0000     2.0850 c2         1 6K2       0.039000
     14 C2          -1.8740     0.0060     1.6540 c3         1 6K2      -0.372000
     15 C3          -2.5580    -1.2390     1.0860 c3         1 6K2      -0.193000
     16 N4          -0.4590     0.0000     1.2760 na         1 6K2       0.808000
     17 O8           3.4510     0.0980    -1.0310 o          1 6K2      -0.309000
     18 C9           1.6710    -0.1200    -2.5300 c2         1 6K2      -0.241000
     19 N11          1.8020     0.3550    -4.8370 n2         1 6K2      -0.024000
     20 C12          0.6800    -0.2990    -5.0680 c2         1 6K2      -0.002000
     21 O16         -0.7820    -3.0760    -2.6890 o          1 6K2      -0.518000
     22 C18         -3.0150    -4.4850    -2.7730 ca         1 6K2       0.156000
     23 C19         -2.5960    -5.7500    -3.1470 ca         1 6K2      -0.135000
     24 N23         -3.4820    -8.5550     0.6490 n1         1 6K2      -0.021000
     25 C25         -3.5710    -4.2750    -1.5230 ca         1 6K2      -0.135000
     26 C27          1.7780     0.0000     1.4130 c2         1 6K2      -0.150000
     27 N29          2.9850    -0.0010     3.4100 n2         1 6K2      -0.134000
     28 C30          1.8480    -0.0000     4.0830 c2         1 6K2      -0.026000
     29 N31          0.6740    -0.0100     3.4900 n2         1 6K2      -0.043000
     30 C32          0.5870    -0.0050     2.1640 c2         1 6K2      -0.165000
     31 H1          -0.6290     0.5240    -0.7100 h4         1 6K2       0.169000
     32 H2           3.1650     0.9080    -3.1330 h4         1 6K2       0.152000
     33 H3          -3.0570    -4.0130    -2.9110 hc         1 6K2       0.137500
     34 H4          -3.4610    -2.4200    -3.7510 hc         1 6K2       0.137500
     35 H5          -2.1380    -7.6140    -2.7030 ha         1 6K2       0.127000
     36 H6          -4.1910    -5.1540     0.3130 ha         1 6K2       0.127000
     37 H7          -0.2220    -1.0890    -1.9530 ha         1 6K2       0.145000
     38 H8           4.0430     0.1300     1.8450 h4         1 6K2       0.151000
     39 H9          -3.4050     0.8980     1.6430 hc         1 6K2       0.074000
     40 H10         -2.0010     2.1890     0.9850 hc         1 6K2       0.074000
     41 H11         -2.9790     0.8460     0.1870 hc         1 6K2       0.074000
     42 H12         -0.9360    -0.2150     1.1590 h1         1 6K2       0.001000
     43 H13         -2.1760    -1.6220     0.1470 hc         1 6K2       0.074000
     44 H14         -1.9770    -1.9950     1.6010 hc         1 6K2       0.074000
     45 H15         -3.5840    -1.1510     1.4220 hc         1 6K2       0.074000
     46 H16          0.3000    -0.5450    -6.0510 h4         1 6K2       0.130000
     47 H17         -1.1840    -2.5820    -4.0960 DU         1 6K2       0.144000
     48 H18         -1.9610    -5.8600    -4.0170 ha         1 6K2       0.136500
     49 H19         -3.6690    -3.3650    -0.9440 ha         1 6K2       0.136500
     50 H20          1.8380     0.0070     5.1660 h5         1 6K2       0.140000
     51 N14         -1.2070    -1.6010    -4.2920 nu         1 6K2      -0.110000
     52 C1          -2.5470     1.2590     1.0900 c3         1 6K2      -0.193000
@<TRIPOS>BOND
     1     1     2 1   
     2     1    16 1   
     3     1    31 1   
     4     2     3 1   
     5     2    26 1   
     6     3    17 1   
     7     3    18 1   
     8     4    18 1   
     9     4    19 1   
    10     4    32 1   
    11     5    12 1   
    12     5    20 1   
    13     5    51 1   
    14     6     7 1   
    15     6    21 1   
    16     6    47 1   
    17     6    51 1   
    18     7    22 1   
    19     7    33 1   
    20     7    34 1   
    21     8     9 1   
    22     8    23 1   
    23     8    35 1   
    24     9    10 1   
    25     9    11 1   
    26    10    24 1   
    27    11    25 1   
    28    11    36 1   
    29    12    18 1   
    30    12    37 1   
    31    13    26 1   
    32    13    27 1   
    33    13    38 1   
    34    14    15 1   
    35    14    16 1   
    36    14    42 1   
    37    14    52 1   
    38    15    43 1   
    39    15    44 1   
    40    15    45 1   
    41    16    30 1   
    42    19    20 1   
    43    20    46 1   
    44    22    23 1   
    45    22    25 1   
    46    23    48 1   
    47    25    49 1   
    48    26    30 1   
    49    27    28 1   
    50    28    29 1   
    51    28    50 1   
    52    29    30 1   
    53    39    52 1   
    54    40    52 1   
    55    41    52 1   
    56    47    51 1   
@<TRIPOS>SUBSTRUCTURE
     1 6K2         1 TEMP              0 ****  ****    0 ROOT
