@<TRIPOS>MOLECULE
molecule
   44    44     1     0     0
SMALL
bcc


@<TRIPOS>ATOM
      1 C4           0.0000     0.0000     0.0000 c3         1 6K3       0.132600
      2 C5           1.5310     0.0000     0.0000 c3         1 6K3       0.124100
      3 C6           2.0410     1.2500    -0.7210 c3         1 6K3       0.148400
      4 C3          -0.5020    -1.2230     0.7750 c3         1 6K3       0.126100
      5 CAR          9.2480    -6.9120    -0.3830 c3         1 6K3      -0.092100
      6 CAQ          7.7300    -6.7360    -0.4540 c3         1 6K3      -0.084400
      7 CAP          7.3330    -5.4410     0.2570 c3         1 6K3      -0.081400
      8 CAO          5.8150    -5.2630     0.1840 c3         1 6K3      -0.080400
      9 CAN          5.4190    -3.9680     0.8960 c3         1 6K3      -0.080400
     10 CAM          3.9000    -3.7900     0.8230 c3         1 6K3      -0.081400
     11 CAL          3.5040    -2.4960     1.5350 c3         1 6K3       0.137400
     12 O1           2.0870    -2.3300     1.4680 os         1 6K3      -0.458600
     13 C1           1.6090    -1.1430     2.1060 c3         1 6K3       0.316900
     14 O5           2.0080     0.0000     1.3470 os         1 6K3      -0.405600
     15 O6           3.4650     1.1940    -0.8240 oh         1 6K3      -0.604800
     16 F4          -0.4680    -0.0550    -1.3170 f          1 6K3      -0.243300
     17 O3          -1.9280    -1.1920     0.8440 oh         1 6K3      -0.586800
     18 C2           0.0810    -1.1900     2.1920 c3         1 6K3       0.121100
     19 O2          -0.3940    -0.0300     2.8770 oh         1 6K3      -0.575800
     20 H1          -0.3600     0.9020     0.4790 h1         1 6K3       0.093700
     21 H2           1.8900    -0.8870    -0.5080 h1         1 6K3       0.069700
     22 H3           1.6090     1.2960    -1.7130 h1         1 6K3       0.038700
     23 H4           1.7540     2.1320    -0.1610 h1         1 6K3       0.038700
     24 H5          -0.1780    -2.1260     0.2720 h1         1 6K3       0.064700
     25 H6           9.5570    -6.9570     0.6550 hc         1 6K3       0.033033
     26 H7           9.7320    -6.0730    -0.8680 hc         1 6K3       0.033033
     27 H8           9.5290    -7.8310    -0.8840 hc         1 6K3       0.033033
     28 H9           7.2450    -7.5760     0.0280 hc         1 6K3       0.040200
     29 H10          7.4210    -6.6880    -1.4920 hc         1 6K3       0.040200
     30 H11          7.6420    -5.4890     1.2940 hc         1 6K3       0.041700
     31 H12          7.8190    -4.6010    -0.2250 hc         1 6K3       0.041700
     32 H13          5.3300    -6.1030     0.6670 hc         1 6K3       0.042700
     33 H14          5.5060    -5.2140    -0.8530 hc         1 6K3       0.042700
     34 H15          5.7280    -4.0160     1.9330 hc         1 6K3       0.044200
     35 H16          5.9040    -3.1280     0.4140 hc         1 6K3       0.044200
     36 H17          3.4150    -4.6300     1.3050 hc         1 6K3       0.051200
     37 H18          3.5920    -3.7410    -0.2140 hc         1 6K3       0.051200
     38 H19          3.8120    -2.5450     2.5730 h1         1 6K3       0.037700
     39 H20          3.9890    -1.6550     1.0540 h1         1 6K3       0.037700
     40 H21          2.0230    -1.0730     3.1040 h2         1 6K3       0.080700
     41 H22          3.7740     1.9400    -1.3100 ho         1 6K3       0.404000
     42 H23         -2.2800    -1.9680     0.4410 ho         1 6K3       0.406000
     43 H24         -0.2230    -2.0820     2.7270 h1         1 6K3       0.054700
     44 H25         -0.6630    -0.2670     3.7490 ho         1 6K3       0.407000
@<TRIPOS>BOND
     1     5     6 1   
     2     6     7 1   
     3     7     8 1   
     4     8     9 1   
     5     9    10 1   
     6    10    11 1   
     7    11    12 1   
     8    12    13 1   
     9    13    14 1   
    10    13    18 1   
    11     2    14 1   
    12     2     3 1   
    13     2     1 1   
    14     4    18 1   
    15     4     1 1   
    16     4    17 1   
    17    18    19 1   
    18    16     1 1   
    19     3    15 1   
    20     1    20 1   
    21     2    21 1   
    22     3    22 1   
    23     3    23 1   
    24     4    24 1   
    25     5    25 1   
    26     5    26 1   
    27     5    27 1   
    28     6    28 1   
    29     6    29 1   
    30     7    30 1   
    31     7    31 1   
    32     8    32 1   
    33     8    33 1   
    34     9    34 1   
    35     9    35 1   
    36    10    36 1   
    37    10    37 1   
    38    11    38 1   
    39    11    39 1   
    40    13    40 1   
    41    15    41 1   
    42    17    42 1   
    43    18    43 1   
    44    19    44 1   
@<TRIPOS>SUBSTRUCTURE
     1 6K3         1 TEMP              0 ****  ****    0 ROOT
