@<TRIPOS>MOLECULE
molecule
   56    59     1     0     0
SMALL
bcc


@<TRIPOS>ATOM
      1 C4           0.0000     0.0000     0.0000 c3         1 6K4       0.130400
      2 C7           1.2230    -2.1500    -1.2390 cc         1 6K4      -0.061100
      3 C8           1.9950    -3.1260    -1.8020 cd         1 6K4      -0.213400
      4 C15         -2.0990    -3.6270    -3.2090 ca         1 6K4      -0.076700
      5 C17         -2.5320    -1.4260    -4.0010 c          1 6K4       0.656100
      6 C20         -2.7100     0.8920    -4.8100 ca         1 6K4       0.432600
      7 C21         -3.2680     1.4690    -5.9360 ca         1 6K4      -0.234300
      8 C22         -2.5900     2.4960    -6.5740 ca         1 6K4      -0.085000
      9 C28          3.3960    -2.7310    -1.5680 ca         1 6K4      -0.364400
     10 C2           1.5300     0.0000     0.0000 c3         1 6K4       0.057700
     11 C3           2.0400     0.0000     1.4430 c3         1 6K4      -0.100100
     12 O5          -0.4760     1.1670     0.6730 oh         1 6K4      -0.600800
     13 N6           2.0180    -1.1970    -0.6890 na         1 6K4      -0.149100
     14 O10          2.3210    -5.1750    -2.8580 o          1 6K4      -0.530100
     15 C11          0.0820    -4.5100    -2.7690 ca         1 6K4      -0.263900
     16 C12         -0.4710    -5.7900    -2.8350 ca         1 6K4       0.448200
     17 N13         -1.7570    -5.9560    -3.0690 nb         1 6K4      -0.674000
     18 C14         -2.5700    -4.9340    -3.2540 ca         1 6K4       0.402200
     19 O18         -1.4070    -1.3790    -4.4510 o          1 6K4      -0.559100
     20 C19         -3.4380    -0.2260    -4.1080 c3         1 6K4      -0.197700
     21 C23         -1.3720     2.9070    -6.0530 ca         1 6K4      -0.095900
     22 Cl          -0.4800     4.1890    -6.8110 cl         1 6K4      -0.092400
     23 C25         -0.8770     2.2820    -4.9230 ca         1 6K4       0.440200
     24 N26         -1.5470     1.3040    -4.3450 nb         1 6K4      -0.657000
     25 C27         -0.7500    -3.4020    -2.9600 ca         1 6K4      -0.082000
     26 C29          4.6370    -3.2750    -1.8780 ca         1 6K4       0.553200
     27 N30          5.7260    -2.6270    -1.4980 nb         1 6K4      -0.805000
     28 C31          5.6430    -1.4810    -0.8350 ca         1 6K4       0.962900
     29 N32          6.8130    -0.8400    -0.4600 nv         1 6K4      -0.993500
     30 N33          4.4840    -0.9280    -0.5180 nb         1 6K4      -0.832000
     31 C34          3.3410    -1.5130    -0.8620 ca         1 6K4       0.539800
     32 H1          -0.3610    -0.8840     0.5110 h1         1 6K4       0.035700
     33 H2          -0.3610    -0.0000    -1.0210 h1         1 6K4       0.035700
     34 H3           0.1390    -2.1390    -1.2310 h4         1 6K4       0.180000
     35 H4          -4.2210     1.1220    -6.3140 ha         1 6K4       0.142000
     36 H5          -3.0030     2.9660    -7.4580 ha         1 6K4       0.153000
     37 H6           3.0630     1.4470    -0.4210 hc         1 6K4       0.056200
     38 H7           2.0040     1.0880    -1.7920 hc         1 6K4       0.056200
     39 H8           1.4170     2.0960    -0.4630 hc         1 6K4       0.056200
     40 H9           1.5710     0.8080     1.9920 hc         1 6K4       0.056200
     41 H10          1.7960    -0.9450     1.9120 hc         1 6K4       0.056200
     42 H11          3.1140     0.1380     1.4460 hc         1 6K4       0.056200
     43 H12         -1.3100     0.9820     1.0720 ho         1 6K4       0.408000
     44 H13          0.1640    -6.6560    -2.6890 h4         1 6K4       0.046100
     45 H14         -3.6200    -5.1170    -3.4430 h4         1 6K4       0.021100
     46 H15         -3.9470    -2.6600    -3.2040 hn         1 6K4       0.324500
     47 H16         -3.7260     0.0980    -3.1150 hc         1 6K4       0.075700
     48 H17         -4.3230    -0.4910    -4.6730 hc         1 6K4       0.075700
     49 H18          0.0740     2.5960    -4.5110 h4         1 6K4       0.040100
     50 H19         -0.3530    -2.3950    -2.9190 ha         1 6K4       0.177000
     51 H20          4.7100    -4.2100    -2.4200 h4         1 6K4       0.051100
     52 H21          7.6990    -1.2430    -0.6900 hn         1 6K4       0.449300
     53 H22          6.7700     0.0250     0.0420 hn         1 6K4       0.449300
     54 C9           1.5250    -4.3280    -2.5000 c          1 6K4       0.623900
     55 C1           2.0410     1.2490    -0.7220 c3         1 6K4      -0.100100
     56 N16         -2.9730    -2.5520    -3.4070 ns         1 6K4      -0.481100
@<TRIPOS>BOND
     1     1    12 1
     2     1    10 1
     3    55    10 1
     4    10    11 1
     5    10    13 1
     6    13     2 1
     7    13    31 1
     8     2     3 2
     9     8     7 ar
    10     8    21 ar
    11     7     6 ar
    12    31    30 ar
    13    31     9 ar
    14    30    28 ar
    15    17    18 ar
    16    17    16 ar
    17    18     4 ar
    18    22    21 1
    19    19     5 2
    20    21    23 ar
    21    16    15 ar
    22     5    20 1
    23     5    56 1
    24     6    20 1
    25     6    24 ar
    26     3     9 1
    27     3    54 1
    28     4    56 1
    29     4    25 ar
    30    29    28 1
    31    28    27 ar
    32     9    26 ar
    33    15    25 ar
    34    15    54 1
    35    23    24 ar
    36    54    14 2
    37    27    26 ar
    38     1    32 1
    39     1    33 1
    40     2    34 1
    41     7    35 1
    42     8    36 1
    43    55    37 1
    44    55    38 1
    45    55    39 1
    46    11    40 1
    47    11    41 1
    48    11    42 1
    49    12    43 1
    50    16    44 1
    51    18    45 1
    52    56    46 1
    53    20    47 1
    54    20    48 1
    55    23    49 1
    56    25    50 1
    57    26    51 1
    58    29    52 1
    59    29    53 1
@<TRIPOS>SUBSTRUCTURE
     1 6K4         1 TEMP              0 ****  ****    0 ROOT
