@<TRIPOS>MOLECULE
6K4
   56    59     1     0     0
SMALL
bcc


@<TRIPOS>ATOM
      1 C4           0.0000     0.0000     0.0000 c3         1 6K4       0.209400
      2 C7           1.2230    -2.1500    -1.2390 cc         1 6K4      -0.245100
      3 C8           1.9950    -3.1260    -1.8020 cd         1 6K4      -0.199400
      4 C15         -2.0990    -3.6270    -3.2090 ca         1 6K4      -0.216700
      5 C17         -2.5320    -1.4260    -4.0010 c          1 6K4       0.558100
      6 C20         -2.7100     0.8920    -4.8100 ca         1 6K4       0.381600
      7 C21         -3.2680     1.4690    -5.9360 ca         1 6K4      -0.201300
      8 C22         -2.5900     2.4960    -6.5740 ca         1 6K4      -0.065000
      9 C28          3.3960    -2.7310    -1.5680 ca         1 6K4      -0.360400
     10 C2           1.5300     0.0000     0.0000 c3         1 6K4      -0.098300
     11 C3           2.0400     0.0000     1.4430 c3         1 6K4      -0.015600
     12 O5          -0.4760     1.1670     0.6730 oh         1 6K4      -0.578800
     13 N6           2.0180    -1.1970    -0.6890 na         1 6K4       0.336900
     14 O10          2.3210    -5.1750    -2.8580 o          1 6K4      -0.566100
     15 C11          0.0820    -4.5100    -2.7690 ca         1 6K4      -0.261900
     16 C12         -0.4710    -5.7900    -2.8350 ca         1 6K4       0.438200
     17 N13         -1.7570    -5.9560    -3.0690 nb         1 6K4      -0.570000
     18 C14         -2.5700    -4.9340    -3.2540 ca         1 6K4       0.387200
     19 O18         -1.4070    -1.3790    -4.4510 o          1 6K4      -0.605100
     20 C19         -3.4380    -0.2260    -4.1080 c3         1 6K4      -0.137700
     21 C23         -1.3720     2.9070    -6.0530 ca         1 6K4      -0.159900
     22 Cl          -0.4800     4.1890    -6.8110 cl         1 6K4      -0.003400
     23 C25         -0.8770     2.2820    -4.9230 ca         1 6K4       0.413200
     24 N26         -1.5470     1.3040    -4.3450 nb         1 6K4      -0.537000
     25 C27         -0.7500    -3.4020    -2.9600 ca         1 6K4      -0.066000
     26 C29          4.6370    -3.2750    -1.8780 ca         1 6K4       0.551200
     27 N30          5.7260    -2.6270    -1.4980 nb         1 6K4      -0.705000
     28 C31          5.6430    -1.4810    -0.8350 ca         1 6K4       0.718900
     29 N32          6.8130    -0.8400    -0.4600 nv         1 6K4      -0.507500
     30 N33          4.4840    -0.9280    -0.5180 nb         1 6K4      -0.709000
     31 C34          3.3410    -1.5130    -0.8620 ca         1 6K4       0.316800
     32 H1          -0.3610    -0.8840     0.5110 h1         1 6K4       0.001700
     33 H2          -0.3610    -0.0000    -1.0210 h1         1 6K4       0.001700
     34 H3           0.1390    -2.1390    -1.2310 h4         1 6K4       0.162000
     35 H4          -4.2210     1.1220    -6.3140 ha         1 6K4       0.115000
     36 H5          -3.0030     2.9660    -7.4580 ha         1 6K4       0.120000
     37 H6           3.0630     1.4470    -0.4210 hc         1 6K4       0.024867
     38 H7           2.0040     1.0880    -1.7920 hc         1 6K4       0.024867
     39 H8           1.4170     2.0960    -0.4630 hc         1 6K4       0.024867
     40 H9           1.5710     0.8080     1.9920 hc         1 6K4       0.024867
     41 H10          1.7960    -0.9450     1.9120 hc         1 6K4       0.024867
     42 H11          3.1140     0.1380     1.4460 hc         1 6K4       0.024867
     43 H12         -1.3100     0.9820     1.0720 ho         1 6K4       0.393000
     44 H13          0.1640    -6.6560    -2.6890 h4         1 6K4      -0.000900
     45 H14         -3.6200    -5.1170    -3.4430 h4         1 6K4      -0.021900
     46 H15         -3.9470    -2.6600    -3.2040 hn         1 6K4       0.168500
     47 H16         -3.7260     0.0980    -3.1150 hc         1 6K4       0.036200
     48 H17         -4.3230    -0.4910    -4.6730 hc         1 6K4       0.036200
     49 H18          0.0740     2.5960    -4.5110 h4         1 6K4      -0.008900
     50 H19         -0.3530    -2.3950    -2.9190 ha         1 6K4       0.161000
     51 H20          4.7100    -4.2100    -2.4200 h4         1 6K4       0.000100
     52 H21          7.6990    -1.2430    -0.6900 hn         1 6K4       0.273800
     53 H22          6.7700     0.0250     0.0420 hn         1 6K4       0.273800
     54 C9           1.5250    -4.3280    -2.5000 c          1 6K4       0.686900
     55 C1           2.0410     1.2490    -0.7220 c3         1 6K4      -0.015600
     56 N16         -2.9730    -2.5520    -3.4070 ns         1 6K4      -0.037100
@<TRIPOS>BOND
     1     1    10 1   
     2     1    12 1   
     3     1    32 1   
     4     1    33 1   
     5     2     3 2   
     6     2    13 1   
     7     2    34 1   
     8     3     9 1   
     9     3    54 1   
    10     4    18 ar  
    11     4    25 ar  
    12     4    56 1   
    13     5    19 2   
    14     5    20 1   
    15     5    56 1   
    16     6     7 ar  
    17     6    20 1   
    18     6    24 ar  
    19     7     8 ar  
    20     7    35 1   
    21     8    21 ar  
    22     8    36 1   
    23     9    26 ar  
    24     9    31 ar  
    25    10    11 1   
    26    10    13 1   
    27    10    55 1   
    28    11    40 1   
    29    11    41 1   
    30    11    42 1   
    31    12    43 1   
    32    13    31 1   
    33    14    54 2   
    34    15    16 ar  
    35    15    25 ar  
    36    15    54 1   
    37    16    17 ar  
    38    16    44 1   
    39    17    18 ar  
    40    18    45 1   
    41    20    47 1   
    42    20    48 1   
    43    21    22 1   
    44    21    23 ar  
    45    23    24 ar  
    46    23    49 1   
    47    25    50 1   
    48    26    27 ar  
    49    26    51 1   
    50    27    28 ar  
    51    28    29 1   
    52    28    30 ar  
    53    29    52 1   
    54    29    53 1   
    55    30    31 ar  
    56    37    55 1   
    57    38    55 1   
    58    39    55 1   
    59    46    56 1   
@<TRIPOS>SUBSTRUCTURE
     1 6K4         1 TEMP              0 ****  ****    0 ROOT
