@<TRIPOS>MOLECULE
6K5
   52    55     1     0     0
SMALL
bcc


@<TRIPOS>ATOM
      1 FAB          0.0000     0.0000     0.0000 f          1 6K5      -0.205967
      2 CAG          1.4000     0.0000     0.0000 c3         1 6K5       0.664200
      3 FAF          1.8660     0.0000     1.3200 f          1 6K5      -0.205967
      4 FAK          1.8660    -1.1420    -0.6590 f          1 6K5      -0.205967
      5 CAH          1.9020     1.2300    -0.7090 ca         1 6K5      -0.088300
      6 CAC          1.0200     2.1520    -1.2360 ca         1 6K5      -0.250300
      7 CAD          1.5200     3.2780    -1.8860 ca         1 6K5       0.520200
      8 NAA          0.6410     4.2100    -2.4160 nv         1 6K5      -0.537500
      9 NAE          2.8260     3.4710    -2.0030 nb         1 6K5      -0.631000
     10 CAJ          3.7010     2.6150    -1.5160 ca         1 6K5       0.494200
     11 CAI          3.2750     1.4690    -0.8470 cp         1 6K5      -0.298800
     12 CAM          4.2630     0.5130    -0.2940 cp         1 6K5       0.759500
     13 NAN          3.8470    -0.5820     0.3380 nb         1 6K5      -0.750000
     14 NAL          5.5650     0.7450    -0.4350 nb         1 6K5      -0.739000
     15 CAO          6.4510    -0.1130     0.0610 ca         1 6K5       0.764900
     16 NAU          7.8020     0.1280    -0.0840 nn         1 6K5      -0.479300
     17 CAZ          8.0380     1.3860    -0.8160 cy         1 6K5       0.141300
     18 CAV          8.3440    -0.5890    -1.2530 cy         1 6K5       0.141300
     19 CBA          9.1640     0.6680    -1.5740 cy         1 6K5      -0.128000
     20 CBD          9.2320     1.0090    -3.0650 c3         1 6K5       0.081000
     21 Cl          10.2200     2.4990    -3.2960 cl         1 6K5      -0.082400
     22 CBB         10.5240     0.7240    -0.8760 c3         1 6K5       0.245400
     23 OBC         11.1990     1.9290    -1.2430 oh         1 6K5      -0.579800
     24 NAP          6.0350    -1.2040     0.6970 nb         1 6K5      -0.692000
     25 CAQ          4.7340    -1.4390     0.8330 ca         1 6K5       0.771900
     26 NAR          4.3030    -2.5740     1.4890 nh         1 6K5      -0.423300
     27 CAS          2.8350    -2.6370     1.5270 c3         1 6K5       0.076300
     28 CAT          2.4010    -3.9370     2.2090 c3         1 6K5       0.213900
     29 OAY          2.9790    -4.0000     3.5150 os         1 6K5      -0.410600
     30 CAX          4.4080    -3.9430     3.5170 c3         1 6K5       0.213900
     31 CAW          4.8610    -2.6420     2.8480 c3         1 6K5       0.076300
     32 HAC1        -0.0360     2.0840    -1.0060 ha         1 6K5       0.138000
     33 HAA1         0.8860     5.1800    -2.4270 hn         1 6K5       0.276300
     34 HAA2        -0.2260     3.9090    -2.8170 hn         1 6K5       0.276300
     35 HAJ1         4.7610     2.8080    -1.6290 h4         1 6K5       0.003100
     36 HAZ2         7.2090     1.6640    -1.4560 h1         1 6K5       0.045450
     37 HAZ1         8.4000     2.1840    -0.1790 h1         1 6K5       0.045450
     38 HAV1         8.9600    -1.4370    -0.9800 h1         1 6K5       0.045450
     39 HAV2         7.5910    -0.8040    -2.0020 h1         1 6K5       0.045450
     40 HBD1         9.6880     0.1860    -3.6030 h1         1 6K5       0.024200
     41 HBD2         8.2310     1.1770    -3.4430 h1         1 6K5       0.024200
     42 HBB1        11.1200    -0.1290    -1.1760 h1         1 6K5      -0.000800
     43 HBB2        10.3800     0.7040     0.1980 h1         1 6K5      -0.000800
     44 HBC1        11.8850     2.1080    -0.6210 ho         1 6K5       0.379000
     45 HAS2         2.4520    -1.7920     2.0860 h1         1 6K5       0.044950
     46 HAS1         2.4470    -2.6140     0.5150 h1         1 6K5       0.044950
     47 HAT2         1.3210    -3.9590     2.2900 h1         1 6K5       0.015700
     48 HAT1         2.7420    -4.7830     1.6230 h1         1 6K5       0.015700
     49 HAX1         4.7680    -3.9680     4.5380 h1         1 6K5       0.015700
     50 HAX2         4.8030    -4.7880     2.9670 h1         1 6K5       0.015700
     51 HAW1         5.9430    -2.6220     2.7950 h1         1 6K5       0.044950
     52 HAW2         4.5070    -1.7960     3.4260 h1         1 6K5       0.044950
@<TRIPOS>BOND
     1     1     2 1   
     2     2     3 1   
     3     2     4 1   
     4     2     5 1   
     5     5     6 ar  
     6     5    11 ar  
     7     6     7 ar  
     8     6    32 1   
     9     7     8 1   
    10     7     9 ar  
    11     8    33 1   
    12     8    34 1   
    13     9    10 ar  
    14    10    11 ar  
    15    10    35 1   
    16    11    12 1   
    17    12    13 ar  
    18    12    14 ar  
    19    13    25 ar  
    20    14    15 ar  
    21    15    16 1   
    22    15    24 ar  
    23    16    17 1   
    24    16    18 1   
    25    17    19 1   
    26    17    36 1   
    27    17    37 1   
    28    18    19 1   
    29    18    38 1   
    30    18    39 1   
    31    19    20 1   
    32    19    22 1   
    33    20    21 1   
    34    20    40 1   
    35    20    41 1   
    36    22    23 1   
    37    22    42 1   
    38    22    43 1   
    39    23    44 1   
    40    24    25 ar  
    41    25    26 1   
    42    26    27 1   
    43    26    31 1   
    44    27    28 1   
    45    27    45 1   
    46    27    46 1   
    47    28    29 1   
    48    28    47 1   
    49    28    48 1   
    50    29    30 1   
    51    30    31 1   
    52    30    49 1   
    53    30    50 1   
    54    31    51 1   
    55    31    52 1   
@<TRIPOS>SUBSTRUCTURE
     1 6K5         1 TEMP              0 ****  ****    0 ROOT
