@<TRIPOS>MOLECULE
6K6
   45    48     1     0     0
SMALL
bcc


@<TRIPOS>ATOM
      1 C66         0.2500   -1.4390    0.2890 cc        1 6K6     -0.251300
      2 C65         1.6250   -1.0150    0.1300 cc        1 6K6     -0.259300
      3 C64         1.7710    0.1410    0.8670 cd        1 6K6      0.218600
      4 O63         0.5670    0.4740    1.4900 os        1 6K6     -0.369800
      5 C62        -0.3550   -0.5140    1.1170 cd        1 6K6      0.242000
      6 C61        -1.7230   -0.3410    1.6710 c3        1 6K6      0.169500
      7 N6         -2.4920   -1.5620    1.6130 nh        1 6K6     -0.836900
      8 C6         -3.7610   -1.5900    2.2070 ca        1 6K6      0.699200
      9 N1         -4.4610   -0.4430    2.4620 nb        1 6K6     -0.797000
     10 C2         -5.7320   -0.5820    2.9420 ca        1 6K6      0.639900
     11 N3         -6.4380   -1.6930    3.2330 nb        1 6K6     -0.700000
     12 C4         -5.7380   -2.8470    3.0020 ca        1 6K6      0.434800
     13 C5         -4.3640   -2.8550    2.4860 ca        1 6K6     -0.198200
     14 N7         -3.9060   -4.1740    2.3780 nc        1 6K6     -0.590100
     15 C8         -4.9360   -4.9360    2.7950 cd        1 6K6      0.460700
     16 N9         -6.0780   -4.1930    3.1680 na        1 6K6     -0.253000
     17 C1'        -7.3250   -4.7130    3.7250 c3        1 6K6      0.215800
     18 O4'        -7.0370   -5.6740    4.7230 os        1 6K6     -0.432600
     19 C2'        -8.2480   -5.3890    2.6540 c3        1 6K6      0.102100
     20 O2'        -9.5530   -4.8810    2.8210 oh        1 6K6     -0.615800
     21 C3'        -8.0910   -6.9020    2.9220 c3        1 6K6      0.128100
     22 O3'        -9.3680   -7.4930    2.9590 oh        1 6K6     -0.682800
     23 C4'        -7.3920   -7.0130    4.2900 c3        1 6K6      0.049100
     24 C5'        -6.1360   -7.9190    4.2750 c3        1 6K6      0.228400
     25 O5'        -6.4600   -9.1920    4.6500 os        1 6K6     -0.553200
     26 PA         -6.5770  -10.3070    3.3080 p5        1 6K6      1.333900
     27 O2         -6.8480  -11.6240    3.9610 o         1 6K6     -0.928833
     28 O3         -7.7380   -9.6370    2.5970 o         1 6K6     -0.928833
     29 O1         -5.2530  -10.0910    2.6350 o         1 6K6     -0.928833
     30 H1         -0.2050   -2.3180   -0.1610 ha        1 6K6      0.177000
     31 H2          2.3780   -1.5280   -0.4610 ha        1 6K6      0.155000
     32 H3          2.5830    0.8310    1.0700 h4        1 6K6      0.042100
     33 H4         -1.6360    0.0570    2.7260 h1        1 6K6      0.066700
     34 H5         -2.2600    0.4450    1.0600 h1        1 6K6      0.066700
     35 H6         -1.9670   -2.4030    1.7450 hn        1 6K6      0.435800
     36 H7         -6.2600    0.3770    3.1230 h5        1 6K6      0.031100
     37 H8         -4.9380   -6.0420    2.8690 h5        1 6K6      0.127800
     38 H9         -7.8530   -3.8530    4.2320 h2        1 6K6      0.093700
     39 H10        -7.9510   -5.1200    1.6060 h1        1 6K6      0.067700
     40 H11       -10.0660   -5.5400    3.3090 ho        1 6K6      0.431000
     41 H12        -7.4730   -7.3860    2.1140 h1        1 6K6      0.117700
     42 H13        -9.2060   -8.4640    2.8630 ho        1 6K6      0.516000
     43 H14        -8.1100   -7.3900    5.0680 h1        1 6K6      0.080700
     44 H15        -5.4060   -7.4740    5.0150 h1        1 6K6     -0.002800
     45 H16        -5.6690   -7.9090    3.2480 h1        1 6K6     -0.002800
@<TRIPOS>BOND
     1    1    2 1
     2    1    5 2
     3    1   30 1
     4    2    3 2
     5    2   31 1
     6    3    4 1
     7    3   32 1
     8    4    5 1
     9    5    6 1
    10    6    7 1
    11    6   33 1
    12    6   34 1
    13    7    8 1
    14    7   35 1
    15    8    9 ar
    16    8   13 ar
    17    9   10 ar
    18   10   11 ar
    19   10   36 1
    20   11   12 ar
    21   12   13 ar
    22   12   16 1
    23   13   14 1
    24   14   15 2
    25   15   16 1
    26   15   37 1
    27   16   17 1
    28   17   18 1
    29   17   19 1
    30   17   38 1
    31   18   23 1
    32   19   20 1
    33   19   21 1
    34   19   39 1
    35   20   40 1
    36   21   22 1
    37   21   23 1
    38   21   41 1
    39   22   42 1
    40   23   24 1
    41   23   43 1
    42   24   25 1
    43   24   44 1
    44   24   45 1
    45   25   26 1
    46   26   27 1
    47   26   28 1
    48   26   29 1
@<TRIPOS>SUBSTRUCTURE
     1 6K6         1 TEMP              0 ****  ****    0 ROOT
