@<TRIPOS>MOLECULE
6K7
   53    56     1     0     0
SMALL
bcc


@<TRIPOS>ATOM
      1 C4           0.0000     0.0000     0.0000 ca         1 6K7       0.544200
      2 C5           1.3950     0.0000     0.0000 ca         1 6K7      -0.381600
      3 C6           2.0560     0.0000     1.2260 cp         1 6K7       0.517800
      4 N1           1.3390    -0.0010     2.3500 nb         1 6K7      -0.679000
      5 N3          -0.6470     0.0040     1.1630 nb         1 6K7      -0.675000
      6 FAB          2.5850    -2.6680     2.0000 f          1 6K7      -0.204967
      7 FAF          2.7400    -1.3560     3.8630 f          1 6K7      -0.204967
      8 FAK          4.3710    -2.8910     3.4090 f          1 6K7      -0.204967
      9 CAH          4.2190    -0.9480     2.0540 ca         1 6K7      -0.089300
     10 CAC          5.5990    -0.9120     2.0690 ca         1 6K7      -0.256300
     11 CAD          6.2620     0.0600     1.3240 ca         1 6K7       0.512200
     12 NAA          7.6500     0.1020     1.3340 nv         1 6K7      -0.515500
     13 NAE          5.5870     0.9450     0.6070 nb         1 6K7      -0.635000
     14 CAJ          4.2700     0.9450     0.5670 ca         1 6K7       0.476200
     15 CAI          3.5370    -0.0010     1.2800 cp         1 6K7      -0.295800
     16 C2           0.0150    -0.0010     2.3100 ca         1 6K7       0.734900
     17 NAU         -0.6950    -0.0020     3.4970 nn         1 6K7      -0.477300
     18 CAZ         -1.3410     1.3080     3.7310 cy         1 6K7       0.147800
     19 CAV          0.2040     0.2130     4.6520 cy         1 6K7       0.147800
     20 CBA         -0.8860     1.1570     5.1920 cy         1 6K7      -0.134000
     21 CBD         -1.9140     0.4650     6.0900 c3         1 6K7       0.095000
     22 Cl          -1.2660     0.3480     7.7680 cl         1 6K7      -0.093400
     23 CBB         -0.3350     2.4480     5.8030 c3         1 6K7       0.234400
     24 OBC          0.0580     2.2050     7.1550 oh         1 6K7      -0.574800
     25 NAR         -0.7020     0.0010    -1.1940 nh         1 6K7      -0.460300
     26 CAS         -2.1530     0.0010    -0.9530 c3         1 6K7       0.100800
     27 CAT         -2.8870     0.0620    -2.2950 c3         1 6K7       0.211400
     28 OAY         -2.4730    -1.0370    -3.1100 os         1 6K7      -0.408600
     29 CAX         -1.0670    -1.0680    -3.3660 c3         1 6K7       0.211400
     30 CAW         -0.3130    -1.1400    -2.0350 c3         1 6K7       0.100800
     31 H5           1.9500    -0.0010    -0.9300 ha         1 6K7       0.138000
     32 HAC          6.1570    -1.7240     2.5200 ha         1 6K7       0.136000
     33 H5T          8.1630    -0.4440     1.9980 hn         1 6K7       0.274800
     34 HAA          8.1370     0.6920     0.6890 hn         1 6K7       0.274800
     35 HAJ          3.7520     1.6850    -0.0310 h4         1 6K7      -0.012900
     36 HAZ2        -2.4180     1.2780     3.6150 h1         1 6K7       0.046700
     37 HAZ1        -0.8490     2.1240     3.2140 h1         1 6K7       0.046700
     38 HAV1         1.1210     0.7270     4.3890 h1         1 6K7       0.046700
     39 HAV2         0.3380    -0.6740     5.2590 h1         1 6K7       0.046700
     40 HBD1        -2.8320     1.0390     6.0970 h1         1 6K7       0.029700
     41 HBD2        -2.1130    -0.5300     5.7100 h1         1 6K7       0.029700
     42 HBB2         0.5240     2.7800     5.2320 h1         1 6K7      -0.010800
     43 HBB1        -1.1010     3.2130     5.7820 h1         1 6K7      -0.010800
     44 HBC          0.4950     2.9680     7.4980 ho         1 6K7       0.378000
     45 HAS2        -2.4200     0.8650    -0.3570 h1         1 6K7       0.033950
     46 HAS1        -2.4310    -0.9060    -0.4310 h1         1 6K7       0.033950
     47 HAT2        -3.9550     0.0020    -2.1250 h1         1 6K7       0.014700
     48 HAT1        -2.6470     0.9920    -2.7960 h1         1 6K7       0.014700
     49 HAX1        -0.8290    -1.9390    -3.9630 h1         1 6K7       0.014700
     50 HAX2        -0.7780    -0.1690    -3.8960 h1         1 6K7       0.014700
     51 HAW1         0.7530    -1.1030    -2.2230 h1         1 6K7       0.033950
     52 HAW2        -0.5650    -2.0640    -1.5280 h1         1 6K7       0.033950
     53 CAG          3.4650    -1.9840     2.8450 c3         1 6K7       0.647200
@<TRIPOS>BOND
     1     1     2 ar  
     2     1     5 ar  
     3     1    25 1   
     4     2     3 ar  
     5     2    31 1   
     6     3     4 ar  
     7     3    15 1   
     8     4    16 ar  
     9     5    16 ar  
    10     6    53 1   
    11     7    53 1   
    12     8    53 1   
    13     9    10 ar  
    14     9    15 ar  
    15     9    53 1   
    16    10    11 ar  
    17    10    32 1   
    18    11    12 1   
    19    11    13 ar  
    20    12    33 1   
    21    12    34 1   
    22    13    14 ar  
    23    14    15 ar  
    24    14    35 1   
    25    16    17 1   
    26    17    18 1   
    27    17    19 1   
    28    18    20 1   
    29    18    36 1   
    30    18    37 1   
    31    19    20 1   
    32    19    38 1   
    33    19    39 1   
    34    20    21 1   
    35    20    23 1   
    36    21    22 1   
    37    21    40 1   
    38    21    41 1   
    39    23    24 1   
    40    23    42 1   
    41    23    43 1   
    42    24    44 1   
    43    25    26 1   
    44    25    30 1   
    45    26    27 1   
    46    26    45 1   
    47    26    46 1   
    48    27    28 1   
    49    27    47 1   
    50    27    48 1   
    51    28    29 1   
    52    29    30 1   
    53    29    49 1   
    54    29    50 1   
    55    30    51 1   
    56    30    52 1   
@<TRIPOS>SUBSTRUCTURE
     1 6K7         1 TEMP              0 ****  ****    0 ROOT
