@<TRIPOS>MOLECULE
molecule
   45    45     1     0     0
SMALL
bcc


@<TRIPOS>ATOM
      1 N1           0.0000     0.0000     0.0000 nz         1 6K8      -0.741600
      2 C2           4.0370     0.0010    -2.6330 c3         1 6K8      -0.063400
      3 N3           5.6900    -1.2510    -4.7310 ns         1 6K8      -0.555900
      4 C4           6.0780     0.0010    -4.0760 c3         1 6K8       0.067700
      5 C5           7.5790     0.1240    -4.0770 c          1 6K8       0.883600
      6 C8           4.7570    -3.4000    -9.0060 c          1 6K8       0.672700
      7 O3           5.7690    -0.3060    -6.7370 o          1 6K8      -0.621100
      8 O1           8.1650     1.1990    -3.5260 o          1 6K8      -0.812300
      9 O            8.2570    -0.7440    -4.5750 o          1 6K8      -0.812300
     10 C3           5.5670     0.0000    -2.6340 c3         1 6K8      -0.258400
     11 C1           3.5270     0.0000    -1.1910 c3         1 6K8       0.223800
     12 N2           2.0620    -0.0000    -1.1910 nu         1 6K8      -0.902200
     13 C            1.3740     0.0000     0.0000 c2         1 6K8       0.662100
     14 N            2.0260     0.0000     1.1280 n2         1 6K8      -0.835100
     15 C7           5.1640    -2.5870    -6.7460 c3         1 6K8       0.036000
     16 N4           5.0960    -2.3790    -8.1940 ns         1 6K8      -0.565900
     17 O2           4.5070    -4.4930    -8.5360 o          1 6K8      -0.627100
     18 C9           4.6870    -3.1900   -10.4680 ca         1 6K8      -0.130600
     19 C14          4.9790    -1.9380   -11.0110 ca         1 6K8      -0.084000
     20 C13          4.9140    -1.7490   -12.3760 ca         1 6K8      -0.148000
     21 C12          4.5600    -2.7980   -13.2070 ca         1 6K8      -0.111000
     22 C11          4.2690    -4.0420   -12.6740 ca         1 6K8      -0.148000
     23 C10          4.3360    -4.2460   -11.3110 ca         1 6K8      -0.084000
     24 H1          -0.3340     0.9370    -0.1100 hn         1 6K8       0.473133
     25 H2          -0.3340    -0.5640    -0.7560 hn         1 6K8       0.473133
     26 H3           3.6770     0.8860    -3.1440 hc         1 6K8       0.037200
     27 H4           3.6760    -0.8830    -3.1450 hc         1 6K8       0.037200
     28 H5           5.5520    -2.0790    -4.1850 hn         1 6K8       0.309500
     29 H6           5.6460     0.8380    -4.6120 h1         1 6K8       0.052700
     30 H8           5.3760     0.8490    -3.2790 hc         1 6K8       0.121700
     31 H9           6.1250     0.4460    -1.8190 hc         1 6K8       0.121700
     32 H10          3.8880     0.8840    -0.6800 h1         1 6K8       0.064700
     33 H11          3.8880    -0.8850    -0.6810 h1         1 6K8       0.064700
     34 H12          1.5610    -0.0140    -2.0570 hn         1 6K8       0.441800
     35 H13          3.0270    -0.0000     1.1290 hn         1 6K8       0.484400
     36 H15          4.1940    -2.9000    -6.3800 h1         1 6K8       0.063200
     37 H16          5.8980    -3.3530    -6.5250 h1         1 6K8       0.063200
     38 H17          5.2900    -1.4760    -8.5790 hn         1 6K8       0.342500
     39 H18          5.3220    -1.1360   -10.3690 ha         1 6K8       0.145500
     40 H19          5.1410    -0.7780   -12.7980 ha         1 6K8       0.131500
     41 H20          4.5060    -2.6430   -14.2780 ha         1 6K8       0.127000
     42 H21          3.9870    -4.8580   -13.3300 ha         1 6K8       0.131500
     43 H22          4.0610    -5.2720   -11.0980 ha         1 6K8       0.145500
     44 H131        -0.3340    -0.3630     0.8710 hn         1 6K8       0.473133
     45 C6           5.5630    -1.2990    -6.0720 c          1 6K8       0.649100
@<TRIPOS>BOND
     1     7    45 2
     2    19    20 ar
     3    19    18 ar
     4    16    15 1
     5    16     6 1
     6    20    21 ar
     7    15    45 1
     8    45     3 1
     9     6    18 1
    10     6    17 2
    11    18    23 ar
    12    21    22 ar
    13     3     4 1
    14    14    13 2
    15    23    22 ar
    16    11     2 1
    17    11    12 1
    18     4     5 1
    19     4    10 1
    20     8     5 1
    21    13    12 1
    22    13     1 1
    23     5     9 1
    24     2    10 1
    25     1    24 1
    26     1    25 1
    27     2    26 1
    28     2    27 1
    29     3    28 1
    30     4    29 1
    31    10    30 1
    32    10    31 1
    33    11    32 1
    34    11    33 1
    35    12    34 1
    36    14    35 1
    37    15    36 1
    38    15    37 1
    39    16    38 1
    40    19    39 1
    41    20    40 1
    42    21    41 1
    43    22    42 1
    44    23    43 1
    45    44     1 1
@<TRIPOS>SUBSTRUCTURE
     1 6K8         1 TEMP              0 ****  ****    0 ROOT
