@<TRIPOS>MOLECULE
6K8
   45    45     1     0     0
SMALL
bcc


@<TRIPOS>ATOM
      1 N1           0.0000     0.0000     0.0000 nz         1 6K8       0.119400
      2 C2           4.0370     0.0010    -2.6330 c3         1 6K8       0.008600
      3 N3           5.6900    -1.2510    -4.7310 ns         1 6K8      -0.152900
      4 C4           6.0780     0.0010    -4.0760 c3         1 6K8      -0.013300
      5 C5           7.5790     0.1240    -4.0770 c          1 6K8       0.966600
      6 C8           4.7570    -3.4000    -9.0060 c          1 6K8       0.588700
      7 O3           5.7690    -0.3060    -6.7370 o          1 6K8      -0.664100
      8 O1           8.1650     1.1990    -3.5260 o          1 6K8      -0.864800
      9 O            8.2570    -0.7440    -4.5750 o          1 6K8      -0.864800
     10 C3           5.5670     0.0000    -2.6340 c3         1 6K8      -0.241400
     11 C1           3.5270     0.0000    -1.1910 c3         1 6K8       0.160800
     12 N2           2.0620    -0.0000    -1.1910 nu         1 6K8      -0.397200
     13 C            1.3740     0.0000     0.0000 c2         1 6K8       0.244100
     14 N            2.0260     0.0000     1.1280 n2         1 6K8      -0.620100
     15 C7           5.1640    -2.5870    -6.7460 c3         1 6K8      -0.025000
     16 N4           5.0960    -2.3790    -8.1940 ns         1 6K8      -0.173900
     17 O2           4.5070    -4.4930    -8.5360 o          1 6K8      -0.676100
     18 C9           4.6870    -3.1900   -10.4680 ca         1 6K8      -0.141600
     19 C14          4.9790    -1.9380   -11.0110 ca         1 6K8      -0.056500
     20 C13          4.9140    -1.7490   -12.3760 ca         1 6K8      -0.121500
     21 C12          4.5600    -2.7980   -13.2070 ca         1 6K8      -0.085000
     22 C11          4.2690    -4.0420   -12.6740 ca         1 6K8      -0.121500
     23 C10          4.3360    -4.2460   -11.3110 ca         1 6K8      -0.056500
     24 H1          -0.3340    -0.5640    -0.7560 hn         1 6K8       0.223133
     25 H2          -0.3340    -0.3730     0.8670 hn         1 6K8       0.223133
     26 H3           3.6760    -0.8830    -3.1450 hc         1 6K8       0.002200
     27 H4           3.6770     0.8860    -3.1440 hc         1 6K8       0.002200
     28 H5           5.5590    -2.0810    -4.1860 hn         1 6K8       0.167500
     29 H6           5.6460     0.8380    -4.6120 h1         1 6K8       0.034700
     30 H8           5.3760     0.8490    -3.2790 hc         1 6K8       0.100700
     31 H9           6.1250     0.4460    -1.8190 hc         1 6K8       0.100700
     32 H10          3.8880    -0.8850    -0.6810 h1         1 6K8       0.050700
     33 H11          3.8880     0.8840    -0.6800 h1         1 6K8       0.050700
     34 H12          1.5610     0.0100    -2.0570 hn         1 6K8       0.295800
     35 H13          1.5280     0.0000     1.9960 hn         1 6K8       0.340400
     36 H15          4.1940    -2.9000    -6.3800 h1         1 6K8       0.032200
     37 H16          5.8980    -3.3530    -6.5250 h1         1 6K8       0.032200
     38 H17          5.3120    -1.4820    -8.5810 hn         1 6K8       0.209500
     39 H18          5.1870    -1.0990   -10.3580 ha         1 6K8       0.117500
     40 H19          5.1400    -0.7780   -12.7980 ha         1 6K8       0.104000
     41 H20          4.5090    -2.6440   -14.2780 ha         1 6K8       0.098000
     42 H21          3.9880    -4.8580   -13.3300 ha         1 6K8       0.104000
     43 H22          4.0960    -5.2630   -11.0240 ha         1 6K8       0.117500
     44 H131        -0.3340     0.9360    -0.1210 hn         1 6K8       0.223133
     45 C6           5.5630    -1.2990    -6.0720 c          1 6K8       0.559100
@<TRIPOS>BOND
     1     1    13 1   
     2     1    24 1   
     3     1    25 1   
     4     1    44 1   
     5     2    10 1   
     6     2    11 1   
     7     2    26 1   
     8     2    27 1   
     9     3     4 1   
    10     3    28 1   
    11     3    45 1   
    12     4     5 1   
    13     4    10 1   
    14     4    29 1   
    15     5     8 1   
    16     5     9 1   
    17     6    16 1   
    18     6    17 2   
    19     6    18 1   
    20     7    45 2   
    21    10    30 1   
    22    10    31 1   
    23    11    12 1   
    24    11    32 1   
    25    11    33 1   
    26    12    13 1   
    27    12    34 1   
    28    13    14 2   
    29    14    35 1   
    30    15    16 1   
    31    15    36 1   
    32    15    37 1   
    33    15    45 1   
    34    16    38 1   
    35    18    19 ar  
    36    18    23 ar  
    37    19    20 ar  
    38    19    39 1   
    39    20    21 ar  
    40    20    40 1   
    41    21    22 ar  
    42    21    41 1   
    43    22    23 ar  
    44    22    42 1   
    45    23    43 1   
@<TRIPOS>SUBSTRUCTURE
     1 6K8         1 TEMP              0 ****  ****    0 ROOT
