@<TRIPOS>MOLECULE
6KA
   45    48     1     0     0
SMALL
bcc


@<TRIPOS>ATOM
      1 C1           0.0000     0.0000     0.0000 ca         1 6KA       0.015400
      2 C2           1.3820     0.0000     0.0000 ca         1 6KA      -0.154300
      3 C3           2.0740     0.0000     1.1990 ca         1 6KA       0.132900
      4 C4           1.3800     0.0010     2.3970 ca         1 6KA      -0.134000
      5 C5          -0.0010     0.0010     2.3960 ca         1 6KA      -0.053000
      6 C6          -0.6930    -0.0000     1.1990 ca         1 6KA      -0.113000
      7 C9           2.1360    -0.0010    -1.3050 c3         1 6KA       0.050600
      8 C11          3.5820     1.9190    -2.0220 cc         1 6KA      -0.231300
      9 C12          3.3850     3.2090    -2.3740 cd         1 6KA      -0.329300
     10 C13          2.0080     3.4730    -2.2880 cd         1 6KA       0.425200
     11 C16          2.1450     5.7840    -2.9720 cc         1 6KA       0.540300
     12 C18          3.1860     7.8980    -3.7170 cc         1 6KA       0.337700
     13 C21          3.6180     9.2690    -4.1700 c3         1 6KA       0.023700
     14 C22          4.2990     9.1640    -5.5360 c3         1 6KA      -0.021100
     15 C25          5.4520    11.0460    -1.4810 cc         1 6KA       0.364600
     16 C26          6.4810    10.2740    -2.0270 cc         1 6KA      -0.302300
     17 F8           3.4250    -0.0000     1.2000 f          1 6KA      -0.124900
     18 Cl7         -0.8690     0.0070    -1.5030 cl         1 6KA       0.009600
     19 N10          2.3800     1.3800    -1.7290 na         1 6KA       0.500400
     20 N14          1.4070     2.3740    -1.8970 nc         1 6KA      -0.683800
     21 N20          3.4360     5.8010    -3.1400 nd         1 6KA      -0.391000
     22 N19          3.9620     6.8820    -3.5200 nd         1 6KA      -0.217000
     23 S17          1.5330     7.3930    -3.3620 ss         1 6KA      -0.407800
     24 N23          4.5580     9.8310    -3.1970 na         1 6KA       0.370400
     25 C27          5.9660     9.5610    -3.0560 cd         1 6KA      -0.195300
     26 N24          4.3570    10.8050    -2.1570 nd         1 6KA      -0.618800
     27 H1           1.9210     0.0010     3.3360 ha         1 6KA       0.123000
     28 H2          -0.5430     0.0010     3.3340 ha         1 6KA       0.111000
     29 H3          -1.7760    -0.0000     1.1990 ha         1 6KA       0.121000
     30 H4           1.5510    -0.5130    -2.0600 h1         1 6KA       0.044200
     31 H5           3.0830    -0.5110    -1.1740 h1         1 6KA       0.044200
     32 H6           4.5360     1.4070    -1.9860 h4         1 6KA       0.149000
     33 H7           4.1520     3.9150    -2.6680 ha         1 6KA       0.186000
     34 H8           2.7510     9.9140    -4.2480 h1         1 6KA       0.053700
     35 H9           3.5570     9.2730    -6.3180 hc         1 6KA       0.022367
     36 H10          4.7790     8.1970    -5.6260 hc         1 6KA       0.022367
     37 H11          5.0410     9.9470    -5.6300 hc         1 6KA       0.022367
     38 H12          7.5100    10.2510    -1.6880 ha         1 6KA       0.134000
     39 H14          6.5080     8.8660    -3.6860 h4         1 6KA       0.139000
     40 H15          4.6170    12.4430    -0.1070 hc         1 6KA       0.009700
     41 H16          6.3020    12.7600    -0.5460 hc         1 6KA       0.009700
     42 H17          5.9100    11.4370     0.5610 hc         1 6KA       0.009700
     43 N15          1.3850     4.6970    -2.5660 nu         1 6KA      -0.285600
     44 C28          5.5790    11.9880    -0.3110 c3         1 6KA      -0.001400
     45 H13          0.3900     4.7770    -2.5020 hn         1 6KA       0.291800
@<TRIPOS>BOND
     1     1     2 ar  
     2     1     6 ar  
     3     1    18 1   
     4     2     3 ar  
     5     2     7 1   
     6     3     4 ar  
     7     3    17 1   
     8     4     5 ar  
     9     4    27 1   
    10     5     6 ar  
    11     5    28 1   
    12     6    29 1   
    13     7    19 1   
    14     7    30 1   
    15     7    31 1   
    16     8     9 2   
    17     8    19 1   
    18     8    32 1   
    19     9    10 1   
    20     9    33 1   
    21    10    20 2   
    22    10    43 1   
    23    11    21 2   
    24    11    23 1   
    25    11    43 1   
    26    12    13 1   
    27    12    22 2   
    28    12    23 1   
    29    13    14 1   
    30    13    24 1   
    31    13    34 1   
    32    14    35 1   
    33    14    36 1   
    34    14    37 1   
    35    15    16 1   
    36    15    26 2   
    37    15    44 1   
    38    16    25 2   
    39    16    38 1   
    40    19    20 1   
    41    21    22 1   
    42    24    25 1   
    43    24    26 1   
    44    25    39 1   
    45    40    44 1   
    46    41    44 1   
    47    42    44 1   
    48    43    45 1   
@<TRIPOS>SUBSTRUCTURE
     1 6KA         1 TEMP              0 ****  ****    0 ROOT
