@<TRIPOS>MOLECULE
molecule
   57    61     1     0     0
SMALL
bcc


@<TRIPOS>ATOM
      1 C2           0.0000     0.0000     0.0000 cc         1 6KC       0.235400
      2 C3           1.3860     0.0000     0.0000 cd         1 6KC      -0.208700
      3 C4           2.0670     0.0000     1.2430 c          1 6KC       0.731100
      4 C6          -0.0150    -0.0100     2.3210 cc         1 6KC       0.504800
      5 N1          -0.6550    -0.0050     1.1920 nd         1 6KC      -0.601100
      6 C8           0.4290    -0.0000    -2.3150 cd         1 6KC      -0.083100
      7 C9          -0.5300     0.0000    -1.3560 cc         1 6KC      -0.161600
      8 C10         -4.6780    -0.4050    -2.3020 ca         1 6KC      -0.153000
      9 C11         -6.0240    -0.3360    -2.5800 ca         1 6KC      -0.053000
     10 C12         -6.4660     0.2050    -3.7920 ca         1 6KC      -0.167600
     11 C13         -5.5400     0.6790    -4.7220 ca         1 6KC      -0.083000
     12 C14         -4.1830     0.6110    -4.4410 cp         1 6KC      -0.092000
     13 C15         -3.1930     1.1120    -5.4260 cp         1 6KC      -0.044000
     14 O79          3.2860     0.0000     1.2850 o          1 6KC      -0.634500
     15 N5           1.3410    -0.0000     2.3800 ns         1 6KC      -0.462400
     16 S7           1.9930     0.0010    -1.6470 ss         1 6KC       0.049200
     17 C18         -1.9680    -0.0000    -1.6560 c          1 6KC       0.686700
     18 O19         -2.7790    -0.0010    -0.7490 o          1 6KC      -0.560100
     19 N20         -2.3890     0.0000    -2.9360 ns         1 6KC      -0.471100
     20 C21         -3.7490     0.0710    -3.2210 ca         1 6KC       0.090600
     21 C64         -2.1850     1.9850    -5.0200 ca         1 6KC      -0.123500
     22 C63         -1.2660     2.4500    -5.9400 ca         1 6KC      -0.130000
     23 C62         -1.3460     2.0490    -7.2620 ca         1 6KC      -0.127000
     24 C61         -2.3450     1.1830    -7.6690 ca         1 6KC      -0.130000
     25 C60         -3.2640     0.7080    -6.7570 ca         1 6KC      -0.123500
     26 O16         -8.6480    -0.6240    -3.7300 o          1 6KC      -0.609100
     27 N22         -8.4130     1.3350    -4.7500 n          1 6KC      -0.490800
     28 C53         -7.5650     2.4920    -5.0750 c3         1 6KC       0.102500
     29 C52         -8.2760     3.7640    -4.6010 c3         1 6KC       0.144800
     30 N51         -9.6300     3.8060    -5.1690 n3         1 6KC      -0.733600
     31 C71        -10.2830     5.0900    -4.8800 c3         1 6KC       0.153100
     32 C50        -10.4440     2.6820    -4.6900 c3         1 6KC       0.144800
     33 C49         -9.8200     1.3620    -5.1740 c3         1 6KC       0.102500
     34 H1          -0.5810    -0.0100     3.2440 h5         1 6KC       0.066800
     35 H2           0.2230    -0.0010    -3.3790 h4         1 6KC       0.178000
     36 H3          -4.3410    -0.8240    -1.3610 ha         1 6KC       0.188000
     37 H4          -6.7440    -0.7060    -1.8600 ha         1 6KC       0.156000
     38 H5          -5.8800     1.0990    -5.6610 ha         1 6KC       0.146000
     39 H6           1.8030    -0.0040     3.2680 hn         1 6KC       0.345500
     40 H7          -1.7280    -0.1150    -3.6790 hn         1 6KC       0.330500
     41 H8          -2.1220     2.2990    -3.9850 ha         1 6KC       0.140500
     42 H9          -0.4820     3.1280    -5.6270 ha         1 6KC       0.133000
     43 H10         -0.6240     2.4180    -7.9820 ha         1 6KC       0.132000
     44 H11         -2.4000     0.8710    -8.7050 ha         1 6KC       0.133000
     45 H12         -4.0460     0.0300    -7.0770 ha         1 6KC       0.140500
     46 H13         -6.6120     2.3980    -4.5680 h1         1 6KC       0.065200
     47 H14         -7.4110     2.5400    -6.1460 h1         1 6KC       0.065200
     48 H15         -7.7190     4.6330    -4.9320 h1         1 6KC       0.042700
     49 H16         -8.3390     3.7600    -3.5190 h1         1 6KC       0.042700
     50 H18        -10.3870     5.2090    -3.8080 h1         1 6KC       0.033033
     51 H19        -11.2630     5.1090    -5.3420 h1         1 6KC       0.033033
     52 H20         -9.6810     5.8990    -5.2760 h1         1 6KC       0.033033
     53 H21        -11.4490     2.7710    -5.0840 h1         1 6KC       0.042700
     54 H22        -10.4710     2.6920    -3.6070 h1         1 6KC       0.042700
     55 H23         -9.8760     1.3070    -6.2540 h1         1 6KC       0.065200
     56 H24        -10.3500     0.5260    -4.7320 h1         1 6KC       0.065200
     57 C17         -7.9110     0.2750    -4.0860 c          1 6KC       0.680700
@<TRIPOS>BOND
     1    22    21 ar  
     2    22    23 ar  
     3    26    57 2   
     4    21    13 ar  
     5    23    24 ar  
     6    32    33 1   
     7    32    30 1   
     8    33    27 1   
     9    57    10 1   
    10    57    27 1   
    11    11    10 ar  
    12    11    12 ar  
    13    13    12 1   
    14    13    25 ar  
    15    10     9 ar  
    16    24    25 ar  
    17    27    28 1   
    18    12    20 ar  
    19    31    30 1   
    20    30    29 1   
    21     9     8 ar  
    22     4     5 2   
    23     4    15 1   
    24    29    28 1   
    25    20     8 ar  
    26    20    19 1   
    27     5     1 1   
    28    15     3 1   
    29    19    17 1   
    30     1     2 2   
    31     1     7 1   
    32     3     2 1   
    33     3    14 2   
    34    17     7 1   
    35    17    18 2   
    36     2    16 1   
    37     7     6 2   
    38     6    16 1   
    39     4    34 1   
    40     6    35 1   
    41     8    36 1   
    42     9    37 1   
    43    11    38 1   
    44    15    39 1   
    45    19    40 1   
    46    21    41 1   
    47    22    42 1   
    48    23    43 1   
    49    24    44 1   
    50    25    45 1   
    51    28    46 1   
    52    28    47 1   
    53    29    48 1   
    54    29    49 1   
    55    31    50 1   
    56    31    51 1   
    57    31    52 1   
    58    32    53 1   
    59    32    54 1   
    60    33    55 1   
    61    33    56 1   
@<TRIPOS>SUBSTRUCTURE
     1 6KC         1 TEMP              0 ****  ****    0 ROOT
