@<TRIPOS>MOLECULE
6KD
   57    60     1     0     0
SMALL
bcc


@<TRIPOS>ATOM
      1 C1           0.0000     0.0000     0.0000 c3         1 6KD       0.042500
      2 C2           1.5320     0.0000     0.0000 c3         1 6KD       0.136800
      3 C4           3.4780     0.1730     1.4310 c3         1 6KD       0.189100
      4 C5           1.6110    -1.2200     2.0950 c3         1 6KD       0.136800
      5 C6           0.0750    -1.2730     2.1790 c3         1 6KD       0.042500
      6 N3           2.0200     0.0000     1.3860 n3         1 6KD      -0.544600
      7 C8          -1.3790    -1.9990     0.3420 c          1 6KD       0.616700
      8 C10         -1.9170    -3.0580     1.2160 ca         1 6KD      -0.151600
      9 C11         -1.9250    -4.3900     0.7850 ca         1 6KD       0.133100
     10 C13         -0.0900    -5.1840    -0.4960 c3         1 6KD       0.172100
     11 C14          0.0320    -6.2540    -1.5840 c3         1 6KD      -0.027100
     12 C15          0.8440    -4.0170    -0.8230 c3         1 6KD      -0.027100
     13 C33         -2.1680   -12.6460     2.6480 c          1 6KD       0.637100
     14 C27         -2.2220   -11.4420     1.9000 cc         1 6KD      -0.149700
     15 S26         -2.2290   -11.1610     0.1670 ss         1 6KD      -0.121800
     16 C25         -2.3110    -9.4720     0.3530 cc         1 6KD       0.011900
     17 N31         -2.1820   -12.5720     3.9950 ns         1 6KD       0.009600
     18 C30         -2.2420   -11.3630     4.6090 cc         1 6KD       0.321800
     19 N29         -2.2870   -10.2520     3.9400 nd         1 6KD      -0.482100
     20 C28         -2.2830   -10.2360     2.5820 cd         1 6KD       0.198400
     21 C24         -2.3330    -9.1110     1.6610 cd         1 6KD      -0.167600
     22 C22         -2.4020    -7.7110     2.1070 c          1 6KD       0.590700
     23 O23         -2.4190    -7.4510     3.2950 o          1 6KD      -0.608100
     24 C19         -2.4370    -5.3810     1.6200 ca         1 6KD      -0.121400
     25 O12         -1.4380    -4.7130    -0.4390 os         1 6KD      -0.309900
     26 C18         -2.9330    -5.0450     2.8710 ca         1 6KD      -0.095000
     27 C17         -2.9250    -3.7260     3.2940 ca         1 6KD      -0.096000
     28 C16         -2.4160    -2.7360     2.4820 ca         1 6KD      -0.092000
     29 O9          -1.7530    -1.9150    -0.8130 o          1 6KD      -0.631100
     30 N7          -0.4710    -1.1250     0.8210 n          1 6KD      -0.158800
     31 H1          -0.3630    -0.1150    -1.0140 h1         1 6KD       0.038450
     32 H2          -0.3630     0.9310     0.4190 h1         1 6KD       0.038450
     33 H3           1.8920     0.8860    -0.5080 h1         1 6KD       0.015950
     34 H4           1.8920    -0.8860    -0.5090 h1         1 6KD       0.015950
     35 H5           3.7420     1.1230     0.9830 h1         1 6KD       0.001700
     36 H6           3.9540    -0.6300     0.8820 h1         1 6KD       0.001700
     37 H7           3.8110     0.1550     2.4610 h1         1 6KD       0.001700
     38 H8           1.9720    -2.0880     1.5550 h1         1 6KD       0.015950
     39 H9           2.0260    -1.2120     3.0950 h1         1 6KD       0.015950
     40 H10         -0.2340    -2.2240     2.5940 h1         1 6KD       0.038450
     41 H11         -0.2820    -0.4630     2.8040 h1         1 6KD       0.038450
     42 H13          0.2120    -5.6020     0.4570 h1         1 6KD       0.007700
     43 H14         -0.9540    -6.6310    -1.8320 hc         1 6KD       0.015200
     44 H15          0.6480    -7.0680    -1.2230 hc         1 6KD       0.015200
     45 H16          0.4860    -5.8220    -2.4670 hc         1 6KD       0.015200
     46 H17          0.3580    -3.3510    -1.5250 hc         1 6KD       0.015200
     47 H18          1.0780    -3.4760     0.0850 hc         1 6KD       0.015200
     48 H19          1.7590    -4.3980    -1.2620 hc         1 6KD       0.015200
     49 H20         -2.3430    -8.7700    -0.4710 h4         1 6KD       0.154000
     50 H21         -2.1480   -13.4090     4.5420 hn         1 6KD       0.186500
     51 H22         -2.2520   -11.3250     5.6920 h5         1 6KD       0.011800
     52 H23         -2.4720    -6.9320     0.2210 hn         1 6KD       0.179500
     53 H24         -3.3330    -5.8160     3.5170 ha         1 6KD       0.165000
     54 H25         -3.3130    -3.4730     4.2730 ha         1 6KD       0.109000
     55 H26         -2.4130    -1.7070     2.8200 ha         1 6KD       0.113000
     56 N20         -2.4480    -6.7160     1.1980 ns         1 6KD      -0.024100
     57 O34         -2.1150   -13.7260     2.0850 o          1 6KD      -0.670500
@<TRIPOS>BOND
     1     1     2 1   
     2     1    30 1   
     3     1    31 1   
     4     1    32 1   
     5     2     6 1   
     6     2    33 1   
     7     2    34 1   
     8     3     6 1   
     9     3    35 1   
    10     3    36 1   
    11     3    37 1   
    12     4     5 1   
    13     4     6 1   
    14     4    38 1   
    15     4    39 1   
    16     5    30 1   
    17     5    40 1   
    18     5    41 1   
    19     7     8 1   
    20     7    29 2   
    21     7    30 1   
    22     8     9 ar  
    23     8    28 ar  
    24     9    24 ar  
    25     9    25 1   
    26    10    11 1   
    27    10    12 1   
    28    10    25 1   
    29    10    42 1   
    30    11    43 1   
    31    11    44 1   
    32    11    45 1   
    33    12    46 1   
    34    12    47 1   
    35    12    48 1   
    36    13    14 1   
    37    13    17 1   
    38    13    57 2   
    39    14    15 1   
    40    14    20 2   
    41    15    16 1   
    42    16    21 2   
    43    16    49 1   
    44    17    18 1   
    45    17    50 1   
    46    18    19 2   
    47    18    51 1   
    48    19    20 1   
    49    20    21 1   
    50    21    22 1   
    51    22    23 2   
    52    22    56 1   
    53    24    26 ar  
    54    24    56 1   
    55    26    27 ar  
    56    26    53 1   
    57    27    28 ar  
    58    27    54 1   
    59    28    55 1   
    60    52    56 1   
@<TRIPOS>SUBSTRUCTURE
     1 6KD         1 TEMP              0 ****  ****    0 ROOT
