@<TRIPOS>MOLECULE
molecule
   57    60     1     0     0
SMALL
bcc


@<TRIPOS>ATOM
      1 C1           0.0000     0.0000     0.0000 c3         1 6KD       0.105500
      2 C2           1.5320     0.0000     0.0000 c3         1 6KD       0.144800
      3 C4           3.4780     0.1730     1.4310 c3         1 6KD       0.153100
      4 C5           1.6110    -1.2200     2.0950 c3         1 6KD       0.144800
      5 C6           0.0750    -1.2730     2.1790 c3         1 6KD       0.105500
      6 N3           2.0200     0.0000     1.3860 n3         1 6KD      -0.732600
      7 C8          -1.3790    -1.9990     0.3420 c          1 6KD       0.680700
      8 C10         -1.9170    -3.0580     1.2160 ca         1 6KD      -0.139600
      9 C11         -1.9250    -4.3900     0.7850 ca         1 6KD       0.117100
     10 C13         -0.0900    -5.1840    -0.4960 c3         1 6KD       0.141100
     11 C14          0.0320    -6.2540    -1.5840 c3         1 6KD      -0.108600
     12 C15          0.8440    -4.0170    -0.8230 c3         1 6KD      -0.108600
     13 C33         -2.1680   -12.6460     2.6480 c          1 6KD       0.731100
     14 C27         -2.2220   -11.4420     1.9000 cc         1 6KD      -0.209700
     15 S26         -2.2290   -11.1610     0.1670 ss         1 6KD       0.049200
     16 C25         -2.3110    -9.4720     0.3530 cc         1 6KD      -0.082100
     17 N31         -2.1820   -12.5720     3.9950 ns         1 6KD      -0.462400
     18 C30         -2.2420   -11.3630     4.6090 cc         1 6KD       0.503800
     19 N29         -2.2870   -10.2520     3.9400 nd         1 6KD      -0.602100
     20 C28         -2.2830   -10.2360     2.5820 cd         1 6KD       0.235400
     21 C24         -2.3330    -9.1110     1.6610 cd         1 6KD      -0.161600
     22 C22         -2.4020    -7.7110     2.1070 c          1 6KD       0.687700
     23 O23         -2.4190    -7.4510     3.2950 o          1 6KD      -0.567100
     24 C19         -2.4370    -5.3810     1.6200 ca         1 6KD       0.032600
     25 O12         -1.4380    -4.7130    -0.4390 os         1 6KD      -0.334900
     26 C18         -2.9330    -5.0450     2.8710 ca         1 6KD      -0.114000
     27 C17         -2.9250    -3.7260     3.2940 ca         1 6KD      -0.127000
     28 C16         -2.4160    -2.7360     2.4820 ca         1 6KD      -0.120000
     29 O9          -1.7530    -1.9150    -0.8130 o          1 6KD      -0.589100
     30 N7          -0.4710    -1.1250     0.8210 n          1 6KD      -0.493800
     31 H1          -0.3630    -0.1150    -1.0140 h1         1 6KD       0.064450
     32 H2          -0.3630     0.9310     0.4190 h1         1 6KD       0.064450
     33 H3           1.8920     0.8860    -0.5080 h1         1 6KD       0.041200
     34 H4           1.8920    -0.8860    -0.5090 h1         1 6KD       0.041200
     35 H5           3.7420     1.1230     0.9830 h1         1 6KD       0.033033
     36 H6           3.9540    -0.6300     0.8820 h1         1 6KD       0.033033
     37 H7           3.8110     0.1550     2.4610 h1         1 6KD       0.033033
     38 H8           1.9720    -2.0880     1.5550 h1         1 6KD       0.041200
     39 H9           2.0260    -1.2120     3.0950 h1         1 6KD       0.041200
     40 H10         -0.2340    -2.2240     2.5940 h1         1 6KD       0.064450
     41 H11         -0.2820    -0.4630     2.8040 h1         1 6KD       0.064450
     42 H13          0.2120    -5.6020     0.4570 h1         1 6KD       0.041700
     43 H14         -0.9540    -6.6310    -1.8320 hc         1 6KD       0.045867
     44 H15          0.6480    -7.0680    -1.2230 hc         1 6KD       0.045867
     45 H16          0.4860    -5.8220    -2.4670 hc         1 6KD       0.045867
     46 H17          0.3580    -3.3510    -1.5250 hc         1 6KD       0.045867
     47 H18          1.0780    -3.4760     0.0850 hc         1 6KD       0.045867
     48 H19          1.7590    -4.3980    -1.2620 hc         1 6KD       0.045867
     49 H20         -2.3430    -8.7700    -0.4710 h4         1 6KD       0.179000
     50 H21         -2.1480   -13.4090     4.5420 hn         1 6KD       0.344500
     51 H22         -2.2520   -11.3250     5.6920 h5         1 6KD       0.065800
     52 H23         -2.4720    -6.9320     0.2210 hn         1 6KD       0.332500
     53 H24         -3.3330    -5.8160     3.5170 ha         1 6KD       0.185000
     54 H25         -3.3130    -3.4730     4.2730 ha         1 6KD       0.139000
     55 H26         -2.4130    -1.7070     2.8200 ha         1 6KD       0.140000
     56 N20         -2.4480    -6.7160     1.1980 ns         1 6KD      -0.468100
     57 O34         -2.1150   -13.7260     2.0850 o          1 6KD      -0.634500
@<TRIPOS>BOND
     1    15    16 1   
     2    15    14 1   
     3    16    21 2   
     4    57    13 2   
     5    14    13 1   
     6    14    20 2   
     7    23    22 2   
     8    21    20 1   
     9    21    22 1   
    10    13    17 1   
    11    20    19 1   
    12    22    56 1   
    13    17    18 1   
    14    56    24 1   
    15    19    18 2   
    16    26    24 ar  
    17    26    27 ar  
    18    24     9 ar  
    19    27    28 ar  
    20    11    10 1   
    21     9    25 1   
    22     9     8 ar  
    23    28     8 ar  
    24    10    25 1   
    25    10    12 1   
    26     8     7 1   
    27     3     6 1   
    28     2     6 1   
    29     2     1 1   
    30     4     6 1   
    31     4     5 1   
    32    30     7 1   
    33    30     1 1   
    34    30     5 1   
    35     7    29 2   
    36     1    31 1   
    37     1    32 1   
    38     2    33 1   
    39     2    34 1   
    40     3    35 1   
    41     3    36 1   
    42     3    37 1   
    43     4    38 1   
    44     4    39 1   
    45     5    40 1   
    46     5    41 1   
    47    10    42 1   
    48    11    43 1   
    49    11    44 1   
    50    11    45 1   
    51    12    46 1   
    52    12    47 1   
    53    12    48 1   
    54    16    49 1   
    55    17    50 1   
    56    18    51 1   
    57    56    52 1   
    58    26    53 1   
    59    27    54 1   
    60    28    55 1   
@<TRIPOS>SUBSTRUCTURE
     1 6KD         1 TEMP              0 ****  ****    0 ROOT
