@<TRIPOS>MOLECULE
molecule
   49    51     1     0     0
SMALL
bcc


@<TRIPOS>ATOM
      1 C1           0.0000     0.0000     0.0000 ca         1 6KE      -0.339500
      2 C2           1.3830     0.0000     0.0000 ca         1 6KE      -0.024000
      3 C3           2.0750     0.0000     1.1960 ca         1 6KE      -0.144000
      4 C4           1.3810    -0.0000     2.3980 ca         1 6KE       0.143600
      5 C5          -0.0070    -0.0010     2.3950 ca         1 6KE      -0.144000
      6 C6          -0.6940     0.0040     1.1970 ca         1 6KE      -0.024000
      7 O1          -2.1630     0.5450    -1.2500 o          1 6KE      -0.518800
      8 C7           1.5700    -0.6520     4.6790 c          1 6KE       0.661100
      9 C10          2.0920    -0.6660     8.7440 cc         1 6KE       0.517800
     10 C11          2.3120    -0.6280    11.0840 c          1 6KE       0.700700
     11 C12          3.6400    -0.1560    10.9180 cc         1 6KE      -0.153900
     12 C13          4.1170     0.0460     9.6100 cd         1 6KE       0.301400
     13 C8           2.2620    -0.5610     6.0140 c3         1 6KE      -0.072600
     14 C9           3.4460    -1.5300     6.0420 c3         1 6KE      -0.076100
     15 O3           0.5540    -1.3050     4.5650 o          1 6KE      -0.570100
     16 C14          4.4700     0.1180    12.0520 cg         1 6KE       0.221500
     17 O2           0.0020     0.5470    -2.4970 o          1 6KE      -0.518800
     18 C16          5.7290     1.5850     8.4960 ca         1 6KE      -0.084500
     19 C17          7.0150     2.0380     8.2920 ca         1 6KE      -0.119000
     20 C18          8.0750     1.4510     8.9650 ca         1 6KE       0.108400
     21 C19          7.8480     0.4070     9.8460 ca         1 6KE      -0.119000
     22 C20          6.5670    -0.0540    10.0580 ca         1 6KE      -0.084500
     23 C15          5.4940     0.5370     9.3860 ca         1 6KE      -0.074800
     24 N4           3.3230    -0.2240     8.5720 nd         1 6KE      -0.696300
     25 N5           5.1440     0.3290    12.9430 n1         1 6KE      -0.334800
     26 O4           1.8510    -0.8090    12.1980 o          1 6KE      -0.593500
     27 N3           1.5700    -0.8720     9.9840 ns         1 6KE      -0.424400
     28 S2           1.0950    -0.9950     7.3290 ss         1 6KE      -0.090300
     29 N2           2.0800    -0.0070     3.6110 ns         1 6KE      -0.460100
     30 S1          -0.8800     0.0010    -1.5260 sy         1 6KE       1.231200
     31 N1          -1.1240    -1.5800    -1.9520 nz         1 6KE      -0.807500
     32 H1           1.9250     0.0140    -0.9380 ha         1 6KE       0.168500
     33 H2           3.1580     0.0170     1.1950 ha         1 6KE       0.179500
     34 H3          -0.5500     0.0380     3.3320 ha         1 6KE       0.179500
     35 H4          -1.7550     0.0610     1.4080 ha         1 6KE       0.168500
     36 H5           2.6190     0.4500     6.1680 h1         1 6KE       0.101700
     37 H6           4.3500    -0.9890     6.2930 hc         1 6KE       0.062700
     38 H7           3.2660    -2.2980     6.7840 hc         1 6KE       0.062700
     39 H8           3.5590    -1.9900     5.0670 hc         1 6KE       0.062700
     40 H9           4.9010     2.0550     7.9780 ha         1 6KE       0.149500
     41 H10          7.1980     2.8620     7.6130 ha         1 6KE       0.158500
     42 H11          8.6770    -0.0390    10.3820 ha         1 6KE       0.158500
     43 H12          6.3970    -0.8970    10.7180 ha         1 6KE       0.149500
     44 H13          0.6650    -1.2890    10.0830 hn         1 6KE       0.354500
     45 H14          2.6140     0.7940     3.8840 hn         1 6KE       0.338500
     46 H15         -1.6420    -1.6190    -2.8080 hn         1 6KE       0.492800
     47 H16         -1.6380    -2.0450    -1.2300 hn         1 6KE       0.492800
     48 H131        -0.2400    -2.0330    -2.0770 hn         1 6KE       0.492800
     49 Cl           9.7990     2.0900     8.2360 cl         1 6KE      -0.182400
@<TRIPOS>BOND
     1    49    20 1
     2    21    20 ar
     3    21    22 ar
     4    20    19 ar
     5    22    23 ar
     6    19    18 ar
     7    23    18 ar
     8    23    12 1
     9    25    16 3
    10    14    13 1
    11    16    11 1
    12    12    11 2
    13    12    24 1
    14    11    10 1
    15    24     9 2
    16    13     8 1
    17    13    28 1
    18     9    27 1
    19     9    28 1
    20    10    27 1
    21    10    26 2
    22     8    29 1
    23     8    15 2
    24    29     4 1
    25     4     5 ar
    26     4     3 ar
    27     5     6 ar
    28     3     2 ar
    29     6     1 ar
    30     2     1 ar
    31     1    30 1
    32    31    30 1
    33     7    30 2
    34    30    17 2
    35     2    32 1
    36     3    33 1
    37     5    34 1
    38     6    35 1
    39    13    36 1
    40    14    37 1
    41    14    38 1
    42    14    39 1
    43    18    40 1
    44    19    41 1
    45    21    42 1
    46    22    43 1
    47    27    44 1
    48    29    45 1
    49    31    46 1
    50    31    47 1
    51    48    31 1
@<TRIPOS>SUBSTRUCTURE
     1 6KE         1 TEMP              0 ****  ****    0 ROOT
