@<TRIPOS>MOLECULE
molecule
   44    44     1     0     0
SMALL
bcc


@<TRIPOS>ATOM
      1 C4           0.0000     0.0000     0.0000 c3         1 6KH       0.095100
      2 C5           1.5310     0.0000     0.0000 c3         1 6KH       0.152100
      3 C6           2.0400     1.2500    -0.7220 c3         1 6KH       0.151400
      4 C3          -0.5030    -1.2220     0.7750 c3         1 6KH       0.149600
      5 CAR          9.2470    -6.9160    -0.3660 c3         1 6KH      -0.092100
      6 CAQ          7.7290    -6.7380    -0.4410 c3         1 6KH      -0.084400
      7 CAP          7.3320    -5.4420     0.2690 c3         1 6KH      -0.081400
      8 CAO          5.8140    -5.2650     0.1940 c3         1 6KH      -0.080400
      9 CAN          5.4170    -3.9690     0.9040 c3         1 6KH      -0.080400
     10 CAM          3.8990    -3.7900     0.8300 c3         1 6KH      -0.081400
     11 CAL          3.5020    -2.4950     1.5400 c3         1 6KH       0.138400
     12 O1           2.0850    -2.3280     1.4700 os         1 6KH      -0.455600
     13 C1           1.6060    -1.1430     2.1070 c3         1 6KH       0.322900
     14 O5           2.0050     0.0000     1.3480 os         1 6KH      -0.409600
     15 O6           3.4650     1.1920    -0.8240 oh         1 6KH      -0.604800
     16 O4          -0.4780    -0.0590    -1.3460 oh         1 6KH      -0.600800
     17 F3          -1.9000    -1.1920     0.8410 f          1 6KH      -0.241300
     18 C2           0.0780    -1.1890     2.1920 c3         1 6KH       0.101100
     19 O2          -0.3970    -0.0280     2.8760 oh         1 6KH      -0.583800
     20 H1          -0.3600     0.9030     0.4780 h1         1 6KH       0.068700
     21 H2           1.8900    -0.8870    -0.5070 h1         1 6KH       0.074700
     22 H3           1.6090     1.2950    -1.7140 h1         1 6KH       0.037200
     23 H4           1.7540     2.1320    -0.1620 h1         1 6KH       0.037200
     24 H5          -0.1780    -2.1260     0.2730 h1         1 6KH       0.090700
     25 H6           9.5280    -7.8340    -0.8680 hc         1 6KH       0.032700
     26 H7           9.5540    -6.9630     0.6720 hc         1 6KH       0.032700
     27 H8           9.7330    -6.0770    -0.8490 hc         1 6KH       0.032700
     28 H9           7.4220    -6.6900    -1.4790 hc         1 6KH       0.040200
     29 H10          7.2430    -7.5780     0.0410 hc         1 6KH       0.040200
     30 H11          7.6390    -5.4900     1.3070 hc         1 6KH       0.041700
     31 H12          7.8180    -4.6030    -0.2130 hc         1 6KH       0.041700
     32 H13          5.3280    -6.1040     0.6760 hc         1 6KH       0.042700
     33 H14          5.5070    -5.2160    -0.8440 hc         1 6KH       0.042700
     34 H15          5.9040    -3.1300     0.4220 hc         1 6KH       0.043700
     35 H16          5.7250    -4.0170     1.9420 hc         1 6KH       0.043700
     36 H17          3.5920    -3.7420    -0.2080 hc         1 6KH       0.052200
     37 H18          3.4130    -4.6300     1.3120 hc         1 6KH       0.052200
     38 H19          3.8100    -2.5430     2.5780 h1         1 6KH       0.037700
     39 H20          3.9890    -1.6550     1.0580 h1         1 6KH       0.037700
     40 H21          2.0190    -1.0720     3.1060 h2         1 6KH       0.080700
     41 H22          3.7760     1.9390    -1.3080 ho         1 6KH       0.402000
     42 H23         -1.2720     0.4430    -1.4200 ho         1 6KH       0.413000
     43 H24         -0.2260    -2.0800     2.7270 h1         1 6KH       0.060700
     44 H25         -0.7370    -0.2770     3.7200 ho         1 6KH       0.410000
@<TRIPOS>BOND
     1    15     3 1   
     2     5     6 1   
     3    14    13 1   
     4    14     2 1   
     5     7     6 1   
     6     7     8 1   
     7     9    10 1   
     8     9     8 1   
     9    11    10 1   
    10    11    12 1   
    11    13    12 1   
    12    13    18 1   
    13     3     2 1   
    14    19    18 1   
    15     2     1 1   
    16    18     4 1   
    17     1     4 1   
    18     1    16 1   
    19     4    17 1   
    20     1    20 1   
    21     2    21 1   
    22     3    22 1   
    23     3    23 1   
    24     4    24 1   
    25     5    25 1   
    26     5    26 1   
    27     5    27 1   
    28     6    28 1   
    29     6    29 1   
    30     7    30 1   
    31     7    31 1   
    32     8    32 1   
    33     8    33 1   
    34     9    34 1   
    35     9    35 1   
    36    10    36 1   
    37    10    37 1   
    38    11    38 1   
    39    11    39 1   
    40    13    40 1   
    41    15    41 1   
    42    16    42 1   
    43    18    43 1   
    44    19    44 1   
@<TRIPOS>SUBSTRUCTURE
     1 6KH         1 TEMP              0 ****  ****    0 ROOT
