@<TRIPOS>MOLECULE
6KJ
   37    37     1     0     0
SMALL
bcc


@<TRIPOS>ATOM
      1 OA2          0.0000     0.0000     0.0000 o          1 6KJ      -0.547500
      2 C            1.2080     0.0000     0.0000 c2         1 6KJ       0.374000
      3 OA1          1.8800     0.0000     1.1620 o          1 6KJ      -0.547500
      4 CA           1.9610    -0.0050    -1.3060 c3         1 6KJ      -0.351000
      5 N            1.0800    -0.4830    -2.3780 nz         1 6KJ       0.858000
      6 CB           2.4340     1.4150    -1.6270 c3         1 6KJ      -0.107000
      7 CG           3.3030     1.3900    -2.8860 DU         1 6KJ      -0.228000
      8 CD           3.7690     2.7880    -3.2030 c2         1 6KJ      -0.383000
      9 NE           5.0310     3.0360    -3.3350 n2         1 6KJ       0.030000
     10 CZ           5.4470     4.2780    -3.7220 c2         1 6KJ      -0.067000
     11 NH2          4.5810     5.2430    -3.8560 n2         1 6KJ      -0.157000
     12 NH1          6.7830     4.5120    -3.9700 n7         1 6KJ       0.137000
     13 OH           7.2130     5.7990    -4.3710 os         1 6KJ      -0.188000
     14 C1           8.6220     5.8970    -4.5940 c3         1 6KJ       0.067000
     15 C4           8.9730     7.3240    -5.0210 c3         1 6KJ      -0.136667
     16 C3           9.3680     5.5530    -3.3040 c3         1 6KJ      -0.136667
     17 C2           9.0330     4.9190    -5.6970 c3         1 6KJ      -0.136667
     18 H2           2.8190    -0.6610    -1.2250 hx         1 6KJ       0.126000
     19 H3           0.5520    -1.2680    -2.0510 hn         1 6KJ       0.008667
     20 H4           0.4540     0.2510    -2.6480 hn         1 6KJ       0.008667
     21 H6           3.0120     1.8000    -0.7960 hc         1 6KJ       0.104000
     22 H7           1.5740     2.0530    -1.7950 hc         1 6KJ       0.104000
     23 H8           2.7250     1.0050    -3.7170 ha         1 6KJ       0.073000
     24 H9           4.1630     0.7520    -2.7190 ha         1 6KJ       0.073000
     25 H10          3.7670     2.3960    -2.1930 DU         1 6KJ       0.326000
     26 H11          3.6110     5.0740    -3.6760 hn         1 6KJ       0.110000
     27 H12          7.4490     3.7740    -3.8560 hn         1 6KJ       0.086000
     28 H13          8.6830     8.0170    -4.2400 hc         1 6KJ       0.054556
     29 H14          8.4440     7.5690    -5.9340 hc         1 6KJ       0.054556
     30 H15         10.0400     7.3980    -5.1910 hc         1 6KJ       0.054556
     31 H16          8.8820     6.0370    -2.4660 hc         1 6KJ       0.054556
     32 H17          9.3580     4.4800    -3.1560 hc         1 6KJ       0.054556
     33 H18         10.3920     5.8980    -3.3760 hc         1 6KJ       0.054556
     34 H19         10.0180     5.1810    -6.0630 hc         1 6KJ       0.054556
     35 H20          8.3200     4.9720    -6.5100 hc         1 6KJ       0.054556
     36 H21          9.0520     3.9120    -5.2980 hc         1 6KJ       0.054556
     37 HN3          1.6330    -0.7660    -3.1630 hn         1 6KJ       0.008667
@<TRIPOS>BOND
     1     1     2 1   
     2     2     3 1   
     3     2     4 1   
     4     4     5 1   
     5     4     6 1   
     6     4    18 1   
     7     5    19 1   
     8     5    20 1   
     9     5    37 1   
    10     6     7 1   
    11     6    21 1   
    12     6    22 1   
    13     7     8 1   
    14     7    23 1   
    15     7    24 1   
    16     7    25 1   
    17     8     9 1   
    18     8    25 1   
    19     9    10 1   
    20    10    11 1   
    21    10    12 1   
    22    11    26 1   
    23    12    13 1   
    24    12    27 1   
    25    13    14 1   
    26    14    15 1   
    27    14    16 1   
    28    14    17 1   
    29    15    28 1   
    30    15    29 1   
    31    15    30 1   
    32    16    31 1   
    33    16    32 1   
    34    16    33 1   
    35    17    34 1   
    36    17    35 1   
    37    17    36 1   
@<TRIPOS>SUBSTRUCTURE
     1 6KJ         1 TEMP              0 ****  ****    0 ROOT
