@<TRIPOS>MOLECULE
molecule
   37    36     1     0     0
SMALL
bcc


@<TRIPOS>ATOM
      1 OA2          0.0000     0.0000     0.0000 o          1 6KJ      -0.773300
      2 C            1.2080     0.0000     0.0000 c          1 6KJ       0.869600
      3 OA1          1.8800     0.0000     1.1620 o          1 6KJ      -0.773300
      4 CA           1.9610    -0.0050    -1.3060 c3         1 6KJ      -0.019500
      5 N            1.0800    -0.4830    -2.3780 nz         1 6KJ      -0.791600
      6 CB           2.4340     1.4150    -1.6270 c3         1 6KJ      -0.086400
      7 CG           3.3030     1.3900    -2.8860 c3         1 6KJ      -0.156700
      8 CD           3.7690     2.7880    -3.2030 c2         1 6KJ       0.503200
      9 NE           5.0310     3.0360    -3.3350 ne         1 6KJ      -0.695000
     10 CZ           5.4470     4.2780    -3.7220 ce         1 6KJ       0.870200
     11 NH2          4.5810     5.2430    -3.8560 n2         1 6KJ      -0.925100
     12 NH1          6.7830     4.5120    -3.9700 nu         1 6KJ      -0.721700
     13 OH           7.2130     5.7990    -4.3710 os         1 6KJ      -0.153100
     14 C1           8.6220     5.8970    -4.5940 c3         1 6KJ       0.122800
     15 C4           8.9730     7.3240    -5.0210 c3         1 6KJ      -0.102767
     16 C3           9.3680     5.5530    -3.3040 c3         1 6KJ      -0.102767
     17 C2           9.0330     4.9190    -5.6970 c3         1 6KJ      -0.102767
     18 H2           2.8190    -0.6610    -1.2250 hx         1 6KJ       0.105700
     19 H3           0.4530     0.2500    -2.6470 hn         1 6KJ       0.439467
     20 H4           1.6320    -0.7560    -3.1670 hn         1 6KJ       0.439467
     21 H6           3.0120     1.8000    -0.7960 hc         1 6KJ       0.092700
     22 H7           1.5740     2.0530    -1.7950 hc         1 6KJ       0.092700
     23 H8           4.1630     0.7520    -2.7190 hc         1 6KJ       0.051200
     24 H9           2.7250     1.0050    -3.7170 hc         1 6KJ       0.051200
     25 H10          3.0420     3.5660    -3.4000 h4         1 6KJ       0.020800
     26 H11          4.8850     6.1540    -4.1400 hn         1 6KJ       0.421400
     27 H12          7.4500     3.7750    -3.8520 hn         1 6KJ       0.454800
     28 H13         10.0400     7.3980    -5.1910 hc         1 6KJ       0.047811
     29 H14          8.4440     7.5690    -5.9340 hc         1 6KJ       0.047811
     30 H15          8.6830     8.0170    -4.2400 hc         1 6KJ       0.047811
     31 H16         10.3910     5.9020    -3.3740 hc         1 6KJ       0.047811
     32 H17          9.3620     4.4790    -3.1580 hc         1 6KJ       0.047811
     33 H18          8.8790     6.0340    -2.4650 hc         1 6KJ       0.047811
     34 H19         10.0170     5.1830    -6.0640 hc         1 6KJ       0.047811
     35 H20          8.3190     4.9710    -6.5100 hc         1 6KJ       0.047811
     36 H21          9.0540     3.9130    -5.2980 hc         1 6KJ       0.047811
     37 HN3          0.5460    -1.2630    -2.0490 hn         1 6KJ       0.439467
@<TRIPOS>BOND
     1    15    14 1
     2    16    14 1
     3    14    13 1
     4    14    17 1
     5    13    12 1
     6    12    10 1
     7    10    11 2
     8    10     9 1
     9     1     2 1
    10     9     8 2
    11     6     7 1
    12     6     4 1
    13     8     7 1
    14     2     4 1
    15     2     3 1
    16     4     5 1
    17     4    18 1
    18     5    19 1
    19     5    20 1
    20     6    21 1
    21     6    22 1
    22     7    23 1
    23     7    24 1
    24     8    25 1
    25    11    26 1
    26    12    27 1
    27    15    28 1
    28    15    29 1
    29    15    30 1
    30    16    31 1
    31    16    32 1
    32    16    33 1
    33    17    34 1
    34    17    35 1
    35    17    36 1
    36    37     5 1
@<TRIPOS>SUBSTRUCTURE
     1 6KJ         1 TEMP              0 ****  ****    0 ROOT
