@<TRIPOS>MOLECULE
molecule
   48    48     1     0     0
SMALL
bcc


@<TRIPOS>ATOM
      1 C1           1.5070     0.0000     0.0000 c          1 6KL       0.896600
      2 O1           2.1780     0.0800    -1.1600 o          1 6KL      -0.814300
      3 O2          -0.4760     0.0000     1.3480 os         1 6KL      -0.370600
      4 C2           0.0000     0.0000     0.0000 c3         1 6KL       0.244600
      5 C3          -0.5110     1.2500    -0.7220 c3         1 6KL      -0.127400
      6 C4          -0.0460     1.2130    -2.1810 c3         1 6KL       0.085700
      7 O3           2.1120    -0.0780     1.0430 o          1 6KL      -0.814300
      8 C11         -0.1950     0.3730    -6.6170 c3         1 6KL      -0.174100
      9 C10         -0.7160     0.4470    -5.2050 c          1 6KL       0.661100
     10 O10         -1.7330     1.0630    -4.9660 o          1 6KL      -0.648100
     11 N5          -0.0470    -0.1620    -4.2060 ns         1 6KL      -0.560900
     12 C5          -0.5470    -0.0800    -2.8310 c3         1 6KL       0.078700
     13 N4          -0.5920     2.3670    -2.8990 ns         1 6KL      -0.580900
     14 CA4          0.0550     3.5480    -2.8680 c          1 6KL       0.643100
     15 OA4          1.0910     3.6560    -2.2450 o          1 6KL      -0.606100
     16 CM4         -0.5080     4.7360    -3.6060 c3         1 6KL      -0.171100
     17 CM2         -1.8960    -0.1200     1.4620 c3         1 6KL       0.116700
     18 O6          -0.4770    -1.1660    -0.6730 os         1 6KL      -0.443600
     19 C6          -0.0360    -1.2780    -2.0290 c3         1 6KL       0.151100
     20 C7          -0.5810    -2.5720    -2.6370 c3         1 6KL       0.157100
     21 O7          -2.0070    -2.5000    -2.7090 oh         1 6KL      -0.593800
     22 C8          -0.1730    -3.7590    -1.7630 c3         1 6KL       0.138100
     23 O8           1.2520    -3.8300    -1.6930 oh         1 6KL      -0.591800
     24 C9          -0.7190    -5.0520    -2.3720 c3         1 6KL       0.094400
     25 O9          -0.4380    -6.1470    -1.4970 oh         1 6KL      -0.612800
     26 H2          -0.1130     2.1340    -0.2390 hc         1 6KL       0.049700
     27 H3          -1.5930     1.2690    -0.6890 hc         1 6KL       0.049700
     28 H4           1.0370     1.2380    -2.2150 h1         1 6KL       0.163700
     29 H5          -0.7620     1.0470    -7.2470 hc         1 6KL       0.053700
     30 H6          -0.2970    -0.6400    -6.9870 hc         1 6KL       0.053700
     31 H7           0.8500     0.6580    -6.6320 hc         1 6KL       0.053700
     32 H8           0.8070    -0.6470    -4.3990 hn         1 6KL       0.320500
     33 H9          -1.6300    -0.0850    -2.8350 h1         1 6KL       0.077700
     34 H10         -1.4770     2.2940    -3.3620 hn         1 6KL       0.323500
     35 H11         -0.1150     5.6490    -3.1750 hc         1 6KL       0.047033
     36 H12         -0.2250     4.6790    -4.6510 hc         1 6KL       0.047033
     37 H13         -1.5880     4.7340    -3.5240 hc         1 6KL       0.047033
     38 H14         -2.2790    -0.6890     0.6240 h1         1 6KL       0.020367
     39 H15         -2.1410    -0.6300     2.3860 h1         1 6KL       0.020367
     40 H16         -2.3430     0.8660     1.4640 h1         1 6KL       0.020367
     41 H17          1.0470    -1.2910    -2.0530 h1         1 6KL       0.141700
     42 H18         -0.1760    -2.7010    -3.6330 h1         1 6KL       0.033700
     43 H19         -2.2990    -2.8610    -3.5290 ho         1 6KL       0.384000
     44 H20         -0.5770    -3.6300    -0.7670 h1         1 6KL       0.083700
     45 H21          1.5030    -4.4820    -1.0590 ho         1 6KL       0.416000
     46 H22         -0.2480    -5.2270    -3.3320 h1         1 6KL       0.021200
     47 H23         -1.7910    -4.9630    -2.5060 h1         1 6KL       0.021200
     48 H24         -0.8080    -6.9370    -1.8540 ho         1 6KL       0.393000
@<TRIPOS>BOND
     1    15    14 2   
     2    14    16 1   
     3    14    13 1   
     4     7     1 1   
     5     8     9 1   
     6    13     6 1   
     7     6    12 1   
     8     6     5 1   
     9    11     9 1   
    10    11    12 1   
    11    23    22 1   
    12     1     2 1   
    13     1     4 1   
    14     9    10 2   
    15    12    19 1   
    16     5     4 1   
    17    19    20 1   
    18    19    18 1   
    19     4    18 1   
    20     4     3 1   
    21    20    22 1   
    22    20    21 1   
    23    22    24 1   
    24    24    25 1   
    25     3    17 1   
    26     5    26 1   
    27     5    27 1   
    28     6    28 1   
    29     8    29 1   
    30     8    30 1   
    31     8    31 1   
    32    11    32 1   
    33    12    33 1   
    34    13    34 1   
    35    16    35 1   
    36    16    36 1   
    37    16    37 1   
    38    17    38 1   
    39    17    39 1   
    40    17    40 1   
    41    19    41 1   
    42    20    42 1   
    43    21    43 1   
    44    22    44 1   
    45    23    45 1   
    46    24    46 1   
    47    24    47 1   
    48    25    48 1   
@<TRIPOS>SUBSTRUCTURE
     1 6KL         1 TEMP              0 ****  ****    0 ROOT
