@<TRIPOS>MOLECULE
molecule
   30    32     1     0     0
SMALL
bcc


@<TRIPOS>ATOM
      1 C5           0.0000     0.0000     0.0000 ca         1 6KN       0.414200
      2 C6           1.3790     0.0000     0.0000 ca         1 6KN      -0.233300
      3 C7           2.0570     0.0000     1.2250 cp         1 6KN      -0.018000
      4 C8           3.5370     0.0010     1.2750 cp         1 6KN       0.029000
      5 C10          5.6380     1.0870     0.8330 ca         1 6KN      -0.136300
      6 C17          4.2310    -1.1030     1.8150 ca         1 6KN      -0.218900
      7 C2           1.2980     0.0010     2.4000 ca         1 6KN      -0.192600
      8 C3          -0.0790     0.0010     2.3060 ca         1 6KN       0.419200
      9 N4          -0.6780     0.0050     1.1320 nb         1 6KN      -0.683000
     10 C9           4.2530     1.0840     0.7880 ca         1 6KN      -0.119000
     11 C11          6.3290     0.0190     1.3620 ca         1 6KN      -0.103000
     12 C12          5.6370    -1.0850     1.8540 ca         1 6KN      -0.030200
     13 N13          6.0270    -2.2690     2.4260 na         1 6KN      -0.044100
     14 N15          4.8760    -3.0060     2.7280 nc         1 6KN      -0.487100
     15 C16          3.8180    -2.3330     2.3750 cd         1 6KN       0.377800
     16 C18          6.3980     2.2730     0.2970 c3         1 6KN       0.674200
     17 F19          6.5930     3.2050     1.3240 f          1 6KN      -0.221300
     18 F20          7.6400     1.8500    -0.1900 f          1 6KN      -0.221300
     19 F21          5.6680     2.8660    -0.7380 f          1 6KN      -0.221300
     20 H1          -0.5340     0.0020    -0.9430 h4         1 6KN       0.026100
     21 H2           1.9300    -0.0040    -0.9330 ha         1 6KN       0.146000
     22 H3           1.3090     0.4380     4.4830 hc         1 6KN       0.049700
     23 H4           2.8850     0.5850     3.6930 hc         1 6KN       0.049700
     24 H5           2.2110    -1.0150     4.0330 hc         1 6KN       0.049700
     25 H6          -0.6760     0.0030     3.2100 h4         1 6KN       0.027100
     26 H7           3.7260     1.9330     0.3690 ha         1 6KN       0.156000
     27 H8           7.4110     0.0350     1.3910 ha         1 6KN       0.149000
     28 H9           6.9700    -2.5580     2.5950 hn         1 6KN       0.339700
     29 H10          2.7920    -2.6610     2.4910 h4         1 6KN       0.069800
     30 C1           1.9730     0.0020     3.7470 c3         1 6KN      -0.047800
@<TRIPOS>BOND
     1    18    16 1   
     2    19    16 1   
     3    11    12 ar  
     4    11     5 ar  
     5    13    12 1   
     6    13    14 1   
     7    30     7 1   
     8    16     5 1   
     9    16    17 1   
    10    12     6 ar  
    11     5    10 ar  
    12    14    15 2   
    13     6    15 1   
    14     6     4 ar  
    15    10     4 ar  
    16     4     3 1   
    17     7     3 ar  
    18     7     8 ar  
    19     3     2 ar  
    20     8     9 ar  
    21     2     1 ar  
    22     9     1 ar  
    23     1    20 1   
    24     2    21 1   
    25    30    22 1   
    26    30    23 1   
    27    30    24 1   
    28     8    25 1   
    29    10    26 1   
    30    11    27 1   
    31    13    28 1   
    32    15    29 1   
@<TRIPOS>SUBSTRUCTURE
     1 6KN         1 TEMP              0 ****  ****    0 ROOT
