@<TRIPOS>MOLECULE
6KO
   45    48     1     0     0
SMALL
bcc


@<TRIPOS>ATOM
      1 C4           0.0000     0.0000     0.0000 ca         1 6KO      -0.014000
      2 C5           1.3980     0.0000     0.0000 ca         1 6KO      -0.196600
      3 C6           2.0910     0.0000     1.2190 ca         1 6KO       0.218100
      4 C8           4.0850    -0.0010     2.5110 c3         1 6KO       0.235700
      5 C13          1.3350     0.0000    -4.8750 c3         1 6KO       0.136500
      6 C15         -0.9860    -0.5280    -5.3140 c3         1 6KO      -0.031400
      7 C20          2.9680     3.9920    -5.2530 cc         1 6KO       0.500200
      8 C22          0.8280     4.8650    -5.1770 cd         1 6KO       0.269500
      9 C24         -1.3310     5.0750    -5.0550 cc         1 6KO       0.643200
     10 C9           2.1390    -0.0010    -1.2740 c          1 6KO       0.720700
     11 O10          3.3550     0.0000    -1.2710 o          1 6KO      -0.570000
     12 O11          1.4680    -0.0000    -2.4440 os         1 6KO      -0.414900
     13 C12          2.2630     0.0000    -3.6590 c3         1 6KO       0.189400
     14 C14          0.3200    -1.1560    -4.7600 c3         1 6KO      -0.033400
     15 C16         -0.8680     0.9310    -4.8100 c3         1 6KO       0.147800
     16 N17          0.5670     1.2530    -4.9180 nh         1 6KO      -0.327000
     17 C18          1.1000     2.5170    -5.0390 cd         1 6KO       0.050300
     18 C19          2.4660     2.6990    -5.1320 cc         1 6KO      -0.415300
     19 N21          2.1520     5.0260    -5.2720 nd         1 6KO      -0.602000
     20 N23         -0.1830     5.7280    -5.1730 nc         1 6KO      -0.405300
     21 N25         -1.0990     3.7860    -4.9810 nd         1 6KO      -0.806100
     22 N26          0.2880     3.6150    -5.0570 na         1 6KO       0.444200
     23 C1           1.3830    -0.0010     2.4110 ca         1 6KO      -0.232000
     24 C2           0.0030    -0.0020     2.3970 ca         1 6KO      -0.018000
     25 C3          -0.6860     0.0050     1.1950 ca         1 6KO      -0.164000
     26 O7           3.4480    -0.0000     1.2310 os         1 6KO      -0.265900
     27 H1          -0.5430     0.0030    -0.9370 ha         1 6KO       0.114000
     28 H2           3.7890     0.8830     3.0620 h1         1 6KO       0.000033
     29 H3           5.1600    -0.0000     2.3780 h1         1 6KO       0.000033
     30 H4           3.7890    -0.8860     3.0610 h1         1 6KO       0.000033
     31 H5           1.9120    -0.1080    -5.7860 h1         1 6KO       0.042700
     32 H6          -1.8580    -1.0130    -4.8910 hc         1 6KO       0.028700
     33 H7          -1.0010    -0.5620    -6.3970 hc         1 6KO       0.028700
     34 H9          -2.3110     5.5350    -5.0250 h5         1 6KO       0.028800
     35 H10          2.8880     0.8840    -3.6810 h1         1 6KO       0.029700
     36 H11          2.8880    -0.8850    -3.6810 h1         1 6KO       0.029700
     37 H12          0.6280    -1.9970    -5.3700 hc         1 6KO       0.036200
     38 H13          0.1920    -1.4500    -3.7250 hc         1 6KO       0.036200
     39 H14         -1.1910     0.9990    -3.7780 h1         1 6KO       0.046200
     40 H15         -1.4500     1.5940    -5.4380 h1         1 6KO       0.046200
     41 H16          3.1360     1.8490    -5.1170 ha         1 6KO       0.150000
     42 H17          1.9140    -0.0030     3.3550 ha         1 6KO       0.127000
     43 H18         -0.5450    -0.0000     3.3310 ha         1 6KO       0.101000
     44 H19         -1.7690     0.0040     1.1950 ha         1 6KO       0.111000
     45 H8           4.0370     4.1500    -5.3280 h4         1 6KO      -0.013900
@<TRIPOS>BOND
     1     1     2 ar  
     2     1    25 ar  
     3     1    27 1   
     4     2     3 ar  
     5     2    10 1   
     6     3    23 ar  
     7     3    26 1   
     8     4    26 1   
     9     4    28 1   
    10     4    29 1   
    11     4    30 1   
    12     5    13 1   
    13     5    14 1   
    14     5    16 1   
    15     5    31 1   
    16     6    14 1   
    17     6    15 1   
    18     6    32 1   
    19     6    33 1   
    20     7    18 1   
    21     7    19 2   
    22     7    45 1   
    23     8    19 1   
    24     8    20 2   
    25     8    22 1   
    26     9    20 1   
    27     9    21 2   
    28     9    34 1   
    29    10    11 2   
    30    10    12 1   
    31    12    13 1   
    32    13    35 1   
    33    13    36 1   
    34    14    37 1   
    35    14    38 1   
    36    15    16 1   
    37    15    39 1   
    38    15    40 1   
    39    16    17 1   
    40    17    18 2   
    41    17    22 1   
    42    18    41 1   
    43    21    22 1   
    44    23    24 ar  
    45    23    42 1   
    46    24    25 ar  
    47    24    43 1   
    48    25    44 1   
@<TRIPOS>SUBSTRUCTURE
     1 6KO         1 TEMP              0 ****  ****    0 ROOT
