@<TRIPOS>MOLECULE
molecule
   45    48     1     0     0
SMALL
bcc


@<TRIPOS>ATOM
      1 C4           0.0000     0.0000     0.0000 ca         1 6KO      -0.043000
      2 C5           1.3980     0.0000     0.0000 ca         1 6KO      -0.169600
      3 C6           2.0910     0.0000     1.2190 ca         1 6KO       0.202100
      4 C8           4.0850    -0.0010     2.5110 c3         1 6KO       0.122700
      5 C13          1.3350     0.0000    -4.8750 c3         1 6KO       0.236500
      6 C15         -0.9860    -0.5280    -5.3140 c3         1 6KO      -0.099400
      7 C20          2.9680     3.9920    -5.2530 cc         1 6KO       0.527200
      8 C22          0.8280     4.8650    -5.1770 cd         1 6KO       0.490500
      9 C24         -1.3310     5.0750    -5.0550 cc         1 6KO       0.594200
     10 C9           2.1390    -0.0010    -1.2740 c          1 6KO       0.649700
     11 O10          3.3550     0.0000    -1.2710 o          1 6KO      -0.528000
     12 O11          1.4680    -0.0000    -2.4440 os         1 6KO      -0.431900
     13 C12          2.2630     0.0000    -3.6590 c3         1 6KO       0.125400
     14 C14          0.3200    -1.1560    -4.7600 c3         1 6KO      -0.090400
     15 C16         -0.8680     0.9310    -4.8100 c3         1 6KO       0.222800
     16 N17          0.5670     1.2530    -4.9180 nh         1 6KO      -0.701000
     17 C18          1.1000     2.5170    -5.0390 cd         1 6KO       0.358300
     18 C19          2.4660     2.6990    -5.1320 cc         1 6KO      -0.441300
     19 N21          2.1520     5.0260    -5.2720 nd         1 6KO      -0.719000
     20 N23         -0.1830     5.7280    -5.1730 nc         1 6KO      -0.453300
     21 N25         -1.0990     3.7860    -4.9810 nd         1 6KO      -0.643100
     22 N26          0.2880     3.6150    -5.0570 na         1 6KO      -0.022800
     23 C1           1.3830    -0.0010     2.4110 ca         1 6KO      -0.239000
     24 C2           0.0030    -0.0020     2.3970 ca         1 6KO      -0.055000
     25 C3          -0.6860     0.0050     1.1950 ca         1 6KO      -0.186000
     26 O7           3.4480    -0.0000     1.2310 os         1 6KO      -0.287900
     27 H1          -0.5430     0.0030    -0.9370 ha         1 6KO       0.150000
     28 H2           3.7890     0.8830     3.0620 h1         1 6KO       0.044700
     29 H3           5.1600    -0.0000     2.3780 h1         1 6KO       0.044700
     30 H4           3.7890    -0.8860     3.0610 h1         1 6KO       0.044700
     31 H5           1.9120    -0.1080    -5.7860 h1         1 6KO       0.071700
     32 H6          -1.8580    -1.0130    -4.8910 hc         1 6KO       0.060200
     33 H7          -1.0010    -0.5620    -6.3970 hc         1 6KO       0.060200
     34 H9          -2.3110     5.5350    -5.0250 h5         1 6KO       0.088800
     35 H10          2.8880     0.8840    -3.6810 h1         1 6KO       0.063700
     36 H11          2.8880    -0.8850    -3.6810 h1         1 6KO       0.063700
     37 H12          0.6280    -1.9970    -5.3700 hc         1 6KO       0.067200
     38 H13          0.1920    -1.4500    -3.7250 hc         1 6KO       0.067200
     39 H14         -1.1910     0.9990    -3.7780 h1         1 6KO       0.071700
     40 H15         -1.4500     1.5940    -5.4380 h1         1 6KO       0.071700
     41 H16          3.1360     1.8490    -5.1170 ha         1 6KO       0.160000
     42 H17          1.9140    -0.0030     3.3550 ha         1 6KO       0.143000
     43 H18         -0.5450    -0.0000     3.3310 ha         1 6KO       0.134000
     44 H19         -1.7690     0.0040     1.1950 ha         1 6KO       0.137000
     45 H8           4.0370     4.1500    -5.3280 h4         1 6KO       0.038100
@<TRIPOS>BOND
     1    14     5 1
     2    14     6 1
     3    19     7 2
     4    19     8 1
     5     7    18 1
     6    25     1 ar
     7    25    24 ar
     8     8    20 2
     9     8    22 1
    10     5    16 1
    11     5    13 1
    12    20     9 1
    13    18    17 2
    14    15     6 1
    15    15    16 1
    16    22    17 1
    17    22    21 1
    18     9    21 2
    19    17    16 1
    20     1     2 ar
    21    24    23 ar
    22    12    13 1
    23    12    10 1
    24     2    10 1
    25     2     3 ar
    26    23     3 ar
    27    10    11 2
    28     3    26 1
    29    26     4 1
    30     1    27 1
    31     4    28 1
    32     4    29 1
    33     4    30 1
    34     5    31 1
    35     6    32 1
    36     6    33 1
    37     7    45 1
    38     9    34 1
    39    13    35 1
    40    13    36 1
    41    14    37 1
    42    14    38 1
    43    15    39 1
    44    15    40 1
    45    18    41 1
    46    23    42 1
    47    24    43 1
    48    25    44 1
@<TRIPOS>SUBSTRUCTURE
     1 6KO         1 TEMP              0 ****  ****    0 ROOT
