@<TRIPOS>MOLECULE
molecule
   34    38     1     0     0
SMALL
bcc


@<TRIPOS>ATOM
      1 N3           0.0000     0.0000     0.0000 nb         1 6KP      -0.700000
      2 C4           1.3230     0.0000     0.0000 ca         1 6KP       0.423800
      3 C7           3.4970    -0.0010     0.3960 cc         1 6KP       0.438700
      4 C10          1.3290    -0.0040    -2.4160 ca         1 6KP      -0.024000
      5 N12         -0.8130    -0.0050    -3.5400 na         1 6KP      -0.010400
      6 C13         -1.2440    -1.1490    -4.2120 cd         1 6KP      -0.204500
      7 C20         -2.4970     1.6950    -6.2030 ca         1 6KP      -0.099000
      8 C21         -2.3180     3.0370    -5.9290 ca         1 6KP       0.086900
      9 C24         -1.0670     2.4880    -3.9530 ca         1 6KP      -0.144000
     10 C2          -0.6920    -0.0010    -1.1200 ca         1 6KP       0.463600
     11 N5           2.2760     0.0000     0.9980 na         1 6KP      -0.368000
     12 N8           3.3570    -0.0030    -0.8970 nd         1 6KP      -0.592100
     13 C9           2.0370    -0.0010    -1.2110 ca         1 6KP      -0.031900
     14 C11         -0.0580    -0.0030    -2.3600 ca         1 6KP      -0.141500
     15 C14         -1.2390    -2.5080    -4.1970 cc         1 6KP      -0.139300
     16 N15         -1.9270    -2.9410    -5.2760 na         1 6KP      -0.024600
     17 N16         -2.3740    -1.8220    -5.9890 nc         1 6KP      -0.479800
     18 C18         -1.9690    -0.7410    -5.3570 cd         1 6KP       0.365800
     19 C19         -1.9590     0.7360    -5.3500 ca         1 6KP      -0.153500
     20 F22         -2.8390     3.9690    -6.7560 f          1 6KP      -0.141900
     21 C23         -1.6040     3.4290    -4.8060 ca         1 6KP      -0.124000
     22 C25         -1.2370     1.1320    -4.2150 ca         1 6KP       0.036800
     23 H1           4.4470    -0.0000     0.9180 h5         1 6KP       0.081800
     24 H2           1.8330    -0.2580    -3.3400 ha         1 6KP       0.164000
     25 H3          -3.1200     1.3910    -7.0360 ha         1 6KP       0.156000
     26 H4          -0.5110     2.8050    -3.0790 ha         1 6KP       0.144000
     27 H5          -2.5750     0.9190    -1.4910 hc         1 6KP       0.060033
     28 H6          -2.5170    -0.0730    -0.0270 hc         1 6KP       0.060033
     29 H7          -2.5810    -0.8460    -1.6170 hc         1 6KP       0.060033
     30 H8           2.1010     0.0010     1.9830 hn         1 6KP       0.314700
     31 H10         -0.7680    -3.1350    -3.4490 h4         1 6KP       0.176000
     32 H11         -2.0870    -3.8970    -5.5250 hn         1 6KP       0.340700
     33 H12         -1.4680     4.4830    -4.5970 ha         1 6KP       0.148000
     34 C1          -2.1970    -0.0000    -1.0600 c3         1 6KP      -0.140400
@<TRIPOS>BOND
     1    34    10 1
     2     1    10 ar
     3     1     2 ar
     4    10    14 ar
     5    11     2 1
     6    11     3 1
     7     2    13 ar
     8    14     5 1
     9    14     4 ar
    10     3    12 2
    11    15     6 2
    12    15    16 1
    13     5     6 1
    14     5    22 1
    15     6    18 1
    16    13     4 ar
    17    13    12 1
    18    16    17 1
    19    22     9 ar
    20    22    19 ar
    21     9    21 ar
    22    18    17 2
    23    18    19 1
    24    19     7 ar
    25    21     8 ar
    26     7     8 ar
    27     8    20 1
    28     3    23 1
    29     4    24 1
    30     7    25 1
    31     9    26 1
    32    34    27 1
    33    34    28 1
    34    34    29 1
    35    11    30 1
    36    15    31 1
    37    16    32 1
    38    21    33 1
@<TRIPOS>SUBSTRUCTURE
     1 6KP         1 TEMP              0 ****  ****    0 ROOT
