@<TRIPOS>MOLECULE
molecule
   44    44     1     0     0
SMALL
bcc


@<TRIPOS>ATOM
      1 C4           0.0000     0.0000     0.0000 c3         1 6KS       0.115100
      2 C5           1.5310     0.0000     0.0000 c3         1 6KS       0.145100
      3 C6           2.0410     1.2490    -0.7220 c3         1 6KS       0.151400
      4 C3          -0.5030    -1.2220     0.7750 c3         1 6KS       0.105100
      5 CAR          9.2460    -6.9150    -0.3690 c3         1 6KS      -0.092100
      6 CAQ          7.7280    -6.7380    -0.4430 c3         1 6KS      -0.084400
      7 CAP          7.3310    -5.4420     0.2670 c3         1 6KS      -0.081400
      8 CAO          5.8140    -5.2640     0.1930 c3         1 6KS      -0.080400
      9 CAN          5.4170    -3.9690     0.9030 c3         1 6KS      -0.080400
     10 CAM          3.8990    -3.7910     0.8300 c3         1 6KS      -0.081400
     11 CAL          3.5010    -2.4950     1.5400 c3         1 6KS       0.137400
     12 O1           2.0840    -2.3290     1.4710 os         1 6KS      -0.454600
     13 C1           1.6060    -1.1420     2.1080 c3         1 6KS       0.310900
     14 O5           2.0050     0.0000     1.3480 os         1 6KS      -0.413600
     15 C2           0.0780    -1.1880     2.1920 c3         1 6KS       0.139600
     16 F2          -0.3870    -0.0520     2.8620 f          1 6KS      -0.222300
     17 O3          -1.9300    -1.1910     0.8440 oh         1 6KS      -0.594800
     18 O4          -0.4780    -0.0580    -1.3450 oh         1 6KS      -0.601800
     19 O6           3.4640     1.1910    -0.8240 oh         1 6KS      -0.603800
     20 H1          -0.3600     0.9030     0.4780 h1         1 6KS       0.065700
     21 H2           1.8900    -0.8870    -0.5070 h1         1 6KS       0.074700
     22 H3           1.7540     2.1320    -0.1620 h1         1 6KS       0.036700
     23 H4           1.6090     1.2950    -1.7140 h1         1 6KS       0.036700
     24 H5          -0.1790    -2.1260     0.2740 h1         1 6KS       0.072700
     25 H6           9.5270    -7.8340    -0.8700 hc         1 6KS       0.033033
     26 H7           9.7320    -6.0770    -0.8530 hc         1 6KS       0.033033
     27 H8           9.5540    -6.9610     0.6690 hc         1 6KS       0.033033
     28 H9           7.4200    -6.6900    -1.4800 hc         1 6KS       0.040200
     29 H10          7.2420    -7.5770     0.0400 hc         1 6KS       0.040200
     30 H11          7.6390    -5.4900     1.3050 hc         1 6KS       0.041700
     31 H12          7.8170    -4.6030    -0.2150 hc         1 6KS       0.041700
     32 H13          5.3280    -6.1040     0.6760 hc         1 6KS       0.042700
     33 H14          5.5060    -5.2160    -0.8440 hc         1 6KS       0.042700
     34 H15          5.7250    -4.0170     1.9410 hc         1 6KS       0.044200
     35 H16          5.9020    -3.1290     0.4210 hc         1 6KS       0.044200
     36 H17          3.5910    -3.7430    -0.2080 hc         1 6KS       0.051700
     37 H18          3.4130    -4.6300     1.3120 hc         1 6KS       0.051700
     38 H19          3.9860    -1.6550     1.0570 h1         1 6KS       0.038200
     39 H20          3.8090    -2.5420     2.5770 h1         1 6KS       0.038200
     40 H21          2.0190    -1.0710     3.1070 h2         1 6KS       0.088700
     41 H22         -0.2270    -2.0790     2.7270 h1         1 6KS       0.072700
     42 H23         -2.2730    -2.0450     0.6370 ho         1 6KS       0.409000
     43 H24         -1.2010     0.5380    -1.4480 ho         1 6KS       0.414000
     44 H25          3.7760     1.9410    -1.3040 ho         1 6KS       0.403000
@<TRIPOS>BOND
     1     5     6 1
     2     6     7 1
     3     7     8 1
     4     8     9 1
     5     9    10 1
     6    10    11 1
     7    11    12 1
     8    12    13 1
     9    13    14 1
    10    13    15 1
    11    14     2 1
    12     2     3 1
    13     2     1 1
    14    15     4 1
    15    15    16 1
    16     4     1 1
    17     4    17 1
    18     3    19 1
    19    18     1 1
    20     1    20 1
    21     2    21 1
    22     3    22 1
    23     3    23 1
    24     4    24 1
    25     5    25 1
    26     5    26 1
    27     5    27 1
    28     6    28 1
    29     6    29 1
    30     7    30 1
    31     7    31 1
    32     8    32 1
    33     8    33 1
    34     9    34 1
    35     9    35 1
    36    10    36 1
    37    10    37 1
    38    11    38 1
    39    11    39 1
    40    13    40 1
    41    15    41 1
    42    17    42 1
    43    18    43 1
    44    19    44 1
@<TRIPOS>SUBSTRUCTURE
     1 6KS         1 TEMP              0 ****  ****    0 ROOT
