@<TRIPOS>MOLECULE
molecule
   21    22     1     0     0
SMALL
bcc


@<TRIPOS>ATOM
      1 C4           0.0000     0.0000     0.0000 ca         1 6KT       0.050000
      2 C5           2.0870     0.0000     1.2180 ca         1 6KT      -0.168000
      3 C6           1.3930     0.0000     0.0000 ca         1 6KT      -0.196600
      4 C8          -2.0940     0.0000     3.2700 cc         1 6KT       0.712100
      5 C10          2.1350    -0.0020    -1.2750 c          1 6KT       0.509700
      6 N12         -3.0590     0.0020     4.2540 nv         1 6KT      -0.983800
      7 C1          -0.0010    -0.0050     2.4200 ca         1 6KT       0.188400
      8 C2          -0.6930     0.0000     1.2020 ca         1 6KT      -0.110100
      9 C3           1.4120     0.0000     2.3960 ca         1 6KT      -0.069000
     10 N7          -0.8220    -0.0050     3.4860 nd         1 6KT      -0.605100
     11 S9          -2.4220     0.0060     1.5420 ss         1 6KT      -0.087100
     12 O11          1.5300    -0.0010    -2.3300 o          1 6KT      -0.429100
     13 N13          3.4820    -0.0020    -1.2700 nz         1 6KT      -0.674400
     14 H15         -0.7100     0.0000    -0.8180 ha         1 6KT       0.178000
     15 H16          3.1220     0.0010     1.5360 ha         1 6KT       0.149000
     16 H18         -3.4140    -0.8640     4.6070 hn         1 6KT       0.466800
     17 H17         -3.4160     0.8690     4.6030 hn         1 6KT       0.466800
     18 H14          1.9020     0.0020     3.3620 ha         1 6KT       0.173000
     19 H19          3.8200    -0.0030    -2.2120 hn         1 6KT       0.476467
     20 H20          3.8140    -0.8190    -0.7960 hn         1 6KT       0.476467
     21 H133         3.8140     0.8160    -0.7980 hn         1 6KT       0.476467
@<TRIPOS>BOND
     1    13     5 1   
     2     2     9 ar  
     3     2     3 ar  
     4     9     7 ar  
     5     5     3 1   
     6     5    12 2   
     7     3     1 ar  
     8     7    10 1   
     9     7     8 ar  
    10    10     4 2   
    11     1     8 ar  
    12     8    11 1   
    13     4     6 1   
    14     4    11 1   
    15     1    14 1   
    16     2    15 1   
    17     6    16 1   
    18     6    17 1   
    19     9    18 1   
    20    13    19 1   
    21    13    20 1   
    22    21    13 1   
@<TRIPOS>SUBSTRUCTURE
     1 6KT         1 TEMP              0 ****  ****    0 ROOT
