@<TRIPOS>MOLECULE
6KT
   21    22     1     0     0
SMALL
bcc


@<TRIPOS>ATOM
      1 C4           0.0000     0.0000     0.0000 ca         1 6KT       0.104000
      2 C5           2.0870     0.0000     1.2180 ca         1 6KT      -0.153000
      3 C6           1.3930     0.0000     0.0000 ca         1 6KT      -0.210600
      4 C8          -2.0940     0.0000     3.2700 cc         1 6KT       0.553100
      5 C10          2.1350    -0.0020    -1.2750 c          1 6KT       0.356700
      6 N12         -3.0590     0.0020     4.2540 nv         1 6KT      -0.510800
      7 C1          -0.0010    -0.0050     2.4200 ca         1 6KT       0.141400
      8 C2          -0.6930     0.0000     1.2020 ca         1 6KT      -0.073100
      9 C3           1.4120     0.0000     2.3960 ca         1 6KT      -0.033000
     10 N7          -0.8220    -0.0050     3.4860 nd         1 6KT      -0.475100
     11 S9          -2.4220     0.0060     1.5420 ss         1 6KT      -0.199100
     12 O11          1.5300    -0.0010    -2.3300 o          1 6KT      -0.440100
     13 N13          3.4820    -0.0020    -1.2700 nz         1 6KT       0.205600
     14 H15         -0.7100     0.0000    -0.8180 ha         1 6KT       0.143000
     15 H16          3.1220     0.0010     1.5360 ha         1 6KT       0.126000
     16 H18         -3.4140    -0.8640     4.6070 hn         1 6KT       0.295800
     17 H17         -3.4160     0.8690     4.6030 hn         1 6KT       0.295800
     18 H14          1.9020     0.0020     3.3620 ha         1 6KT       0.136000
     19 H19          3.8200    -0.0030    -2.2120 hn         1 6KT       0.244800
     20 H20          3.8140    -0.8190    -0.7960 hn         1 6KT       0.244800
     21 H133         3.8140     0.8160    -0.7980 hn         1 6KT       0.244800
@<TRIPOS>BOND
     1     1     3 ar  
     2     1     8 ar  
     3     1    14 1   
     4     2     3 ar  
     5     2     9 ar  
     6     2    15 1   
     7     3     5 1   
     8     4     6 1   
     9     4    10 2   
    10     4    11 1   
    11     5    12 2   
    12     5    13 1   
    13     6    16 1   
    14     6    17 1   
    15     7     8 ar  
    16     7     9 ar  
    17     7    10 1   
    18     8    11 1   
    19     9    18 1   
    20    13    19 1   
    21    13    20 1   
    22    13    21 1   
@<TRIPOS>SUBSTRUCTURE
     1 6KT         1 TEMP              0 ****  ****    0 ROOT
