@<TRIPOS>MOLECULE
molecule
   44    44     1     0     0
SMALL
bcc


@<TRIPOS>ATOM
      1 C4           0.0000     0.0000     0.0000 c3         1 6KU      -0.123400
      2 C5           1.5310     0.0000     0.0000 c3         1 6KU       0.151100
      3 C6           2.0410     1.2500    -0.7200 c3         1 6KU       0.149400
      4 C3          -0.5050    -1.2220     0.7740 c3         1 6KU       0.150100
      5 CAR          9.2470    -6.9150    -0.3700 c3         1 6KU      -0.092100
      6 CAQ          7.7290    -6.7370    -0.4440 c3         1 6KU      -0.084400
      7 CAP          7.3320    -5.4420     0.2670 c3         1 6KU      -0.081400
      8 CAO          5.8140    -5.2640     0.1930 c3         1 6KU      -0.080400
      9 CAN          5.4170    -3.9680     0.9030 c3         1 6KU      -0.080400
     10 CAM          3.8990    -3.7910     0.8290 c3         1 6KU      -0.082400
     11 CAL          3.5010    -2.4950     1.5400 c3         1 6KU       0.137400
     12 O1           2.0840    -2.3290     1.4700 os         1 6KU      -0.459600
     13 C1           1.6050    -1.1430     2.1080 c3         1 6KU       0.320900
     14 O5           2.0050     0.0000     1.3480 os         1 6KU      -0.412600
     15 O6           3.4660     1.1920    -0.8220 oh         1 6KU      -0.604800
     16 O3          -1.9320    -1.1900     0.8400 oh         1 6KU      -0.594800
     17 C2           0.0750    -1.1900     2.1920 c3         1 6KU       0.124100
     18 O2          -0.4020    -0.0290     2.8750 oh         1 6KU      -0.573800
     19 H41         -0.3610    -0.0450    -1.0210 hc         1 6KU       0.065200
     20 H42         -0.3610     0.9030     0.4770 hc         1 6KU       0.065200
     21 H5           1.8910    -0.8870    -0.5070 h1         1 6KU       0.056700
     22 H62          1.6100     1.2960    -1.7130 h1         1 6KU       0.032200
     23 H61          1.7540     2.1320    -0.1600 h1         1 6KU       0.032200
     24 H31         -0.1800    -2.1260     0.2720 h1         1 6KU       0.051700
     25 HAR          9.5280    -7.8310    -0.8750 hc         1 6KU       0.032700
     26 HAS          9.5540    -6.9650     0.6680 hc         1 6KU       0.032700
     27 HAT          9.7320    -6.0740    -0.8500 hc         1 6KU       0.032700
     28 HAQ          7.4210    -6.6890    -1.4810 hc         1 6KU       0.039700
     29 HAU          7.2430    -7.5770     0.0380 hc         1 6KU       0.039700
     30 HAV          7.6390    -5.4900     1.3050 hc         1 6KU       0.041700
     31 HAP          7.8180    -4.6020    -0.2140 hc         1 6KU       0.041700
     32 HAO          5.3280    -6.1030     0.6750 hc         1 6KU       0.042200
     33 HAW          5.5070    -5.2160    -0.8450 hc         1 6KU       0.042200
     34 HAX          5.7240    -4.0160     1.9400 hc         1 6KU       0.044200
     35 HAN          5.9020    -3.1290     0.4210 hc         1 6KU       0.044200
     36 HAM          3.5910    -3.7430    -0.2090 hc         1 6KU       0.050200
     37 HAY          3.4130    -4.6310     1.3110 hc         1 6KU       0.050200
     38 HAZ          3.9880    -1.6560     1.0580 h1         1 6KU       0.036700
     39 HAL          3.8090    -2.5440     2.5770 h1         1 6KU       0.036700
     40 H1           2.0180    -1.0720     3.1070 h2         1 6KU       0.076700
     41 H63          3.7770     1.9390    -1.3060 ho         1 6KU       0.401000
     42 H32         -2.2850    -1.9130     0.3480 ho         1 6KU       0.399000
     43 H21         -0.2290    -2.0820     2.7260 h1         1 6KU       0.048700
     44 H22         -0.6820    -0.2680     3.7430 ho         1 6KU       0.403000
@<TRIPOS>BOND
     1     5     6 1   
     2     6     7 1   
     3     7     8 1   
     4     8     9 1   
     5     9    10 1   
     6    10    11 1   
     7    11    12 1   
     8    12    13 1   
     9    13    14 1   
    10    13    17 1   
    11    14     2 1   
    12     2     3 1   
    13     2     1 1   
    14    17     4 1   
    15    17    18 1   
    16     4     1 1   
    17     4    16 1   
    18     3    15 1   
    19     1    19 1   
    20     1    20 1   
    21     2    21 1   
    22     3    22 1   
    23     3    23 1   
    24     4    24 1   
    25     5    25 1   
    26     5    26 1   
    27     5    27 1   
    28     6    28 1   
    29     6    29 1   
    30     7    30 1   
    31     7    31 1   
    32     8    32 1   
    33     8    33 1   
    34     9    34 1   
    35     9    35 1   
    36    10    36 1   
    37    10    37 1   
    38    11    38 1   
    39    11    39 1   
    40    13    40 1   
    41    15    41 1   
    42    16    42 1   
    43    17    43 1   
    44    18    44 1   
@<TRIPOS>SUBSTRUCTURE
     1 6KU         1 TEMP              0 ****  ****    0 ROOT
