@<TRIPOS>MOLECULE
molecule
   48    50     1     0     0
SMALL
bcc


@<TRIPOS>ATOM
      1 N1          -0.8860     0.0070    -2.4530 n1         1 6KV      -0.368800
      2 C3          -0.4900    -0.0010    -1.3880 c1         1 6KV       0.210700
      3 C2           0.0000     0.0000     0.0000 c3         1 6KV      -0.024300
      4 C1           1.5300     0.0000     0.0000 c3         1 6KV       0.172800
      5 N            2.0190     0.0000     1.3850 nh         1 6KV      -0.700300
      6 C            1.6700    -1.2530     2.0680 c3         1 6KV       0.146100
      7 C4           3.3860     0.2250     1.4290 ca         1 6KV       0.726200
      8 C9           4.0630     0.2650     2.6600 ca         1 6KV      -0.337700
      9 S            3.4910     0.0740     4.3100 ss         1 6KV      -0.080500
     10 C8           5.1110     0.3060     4.9470 cc         1 6KV      -0.056400
     11 C7           5.9760     0.5070     3.9640 cd         1 6KV      -0.264800
     12 C6           5.4390     0.4930     2.6670 ca         1 6KV       0.544100
     13 N3           6.0590     0.6660     1.4750 nb         1 6KV      -0.805000
     14 C5           5.3840     0.6180     0.3460 ca         1 6KV       0.969900
     15 N2           4.0750     0.3990     0.3090 nb         1 6KV      -0.834000
     16 N4           6.0650     0.8000    -0.8470 nh         1 6KV      -0.805300
     17 C10          5.3400     0.7530    -2.1190 c3         1 6KV       0.236100
     18 C11          7.5110     1.0410    -0.8370 c3         1 6KV       0.244500
     19 C16          7.8090     2.3970    -1.4810 c3         1 6KV      -0.094400
     20 C15          9.3230     2.6140    -1.5230 c3         1 6KV       0.165800
     21 N5           9.9540     1.5360    -2.2940 n3         1 6KV      -0.734600
     22 C14         11.3900     1.7860    -2.4720 c3         1 6KV       0.154100
     23 C13          9.7210     0.2280    -1.6680 c3         1 6KV       0.165800
     24 C12          8.2180    -0.0610    -1.6300 c3         1 6KV      -0.094400
     25 H21C        -0.3610    -0.8840     0.5110 hc         1 6KV       0.077700
     26 H22C        -0.3610     0.8850     0.5100 hc         1 6KV       0.077700
     27 H11C         1.8910     0.8850    -0.5110 h1         1 6KV       0.067700
     28 H12C         1.8910    -0.8840    -0.5110 h1         1 6KV       0.067700
     29 HC1          1.1450    -1.9050     1.3800 h1         1 6KV       0.050700
     30 HC2          1.0320    -1.0360     2.9160 h1         1 6KV       0.050700
     31 HC3          2.5730    -1.7420     2.4110 h1         1 6KV       0.050700
     32 H8           5.3680     0.2870     5.9990 h4         1 6KV       0.175000
     33 H7           7.0300     0.6710     4.1490 ha         1 6KV       0.162000
     34 H101         4.6180     1.5600    -2.1530 h1         1 6KV       0.042700
     35 H102         4.8260    -0.1960    -2.2060 h1         1 6KV       0.042700
     36 H103         6.0410     0.8610    -2.9380 h1         1 6KV       0.042700
     37 H11          7.8750     1.0400     0.1840 h1         1 6KV       0.095700
     38 H161         7.4160     2.4100    -2.4910 hc         1 6KV       0.054700
     39 H162         7.3480     3.1830    -0.8970 hc         1 6KV       0.054700
     40 H121         7.8300    -0.0830    -2.6420 hc         1 6KV       0.054700
     41 H122         8.0470    -1.0170    -1.1510 hc         1 6KV       0.054700
     42 H151         9.5370     3.5660    -1.9940 h1         1 6KV       0.036200
     43 H152         9.7150     2.6100    -0.5130 h1         1 6KV       0.036200
     44 H141        11.8750     1.8090    -1.5040 h1         1 6KV       0.032033
     45 H142        11.5320     2.7370    -2.9700 h1         1 6KV       0.032033
     46 H143        11.8220     0.9950    -3.0730 h1         1 6KV       0.032033
     47 H131        10.2210    -0.5410    -2.2440 h1         1 6KV       0.036200
     48 H132        10.1100     0.2400    -0.6570 h1         1 6KV       0.036200
@<TRIPOS>BOND
     1     1     2 3
     2     2     3 1
     3     3     4 1
     4     4     5 1
     5     5     6 1
     6     5     7 1
     7     7     8 ar
     8     7    15 ar
     9     8     9 1
    10     8    12 ar
    11     9    10 1
    12    10    11 2
    13    11    12 1
    14    12    13 ar
    15    13    14 ar
    16    14    15 ar
    17    14    16 1
    18    16    17 1
    19    16    18 1
    20    18    19 1
    21    18    24 1
    22    19    20 1
    23    20    21 1
    24    21    22 1
    25    21    23 1
    26    23    24 1
    27     3    25 1
    28     3    26 1
    29     4    27 1
    30     4    28 1
    31     6    29 1
    32     6    30 1
    33     6    31 1
    34    10    32 1
    35    11    33 1
    36    17    34 1
    37    17    35 1
    38    17    36 1
    39    18    37 1
    40    19    38 1
    41    19    39 1
    42    24    40 1
    43    24    41 1
    44    20    42 1
    45    20    43 1
    46    22    44 1
    47    22    45 1
    48    22    46 1
    49    23    47 1
    50    23    48 1
@<TRIPOS>SUBSTRUCTURE
     1 6KV         1 TEMP              0 ****  ****    0 ROOT
