@<TRIPOS>MOLECULE
molecule
   44    44     1     0     0
SMALL
bcc


@<TRIPOS>ATOM
      1 C4           0.0000     0.0000     0.0000 c3         1 6KW       0.120100
      2 C5           1.5300     0.0000     0.0000 c3         1 6KW       0.153100
      3 C6           2.0420     1.2480    -0.7210 c3         1 6KW       0.149400
      4 C3          -0.5040    -1.2210     0.7760 c3         1 6KW      -0.107400
      5 CAR          9.2440    -6.9210    -0.3570 c3         1 6KW      -0.092100
      6 CAQ          7.7260    -6.7420    -0.4330 c3         1 6KW      -0.084400
      7 CAP          7.3290    -5.4460     0.2770 c3         1 6KW      -0.081400
      8 CAO          5.8110    -5.2670     0.2010 c3         1 6KW      -0.080400
      9 CAN          5.4140    -3.9700     0.9100 c3         1 6KW      -0.080400
     10 CAM          3.8970    -3.7920     0.8350 c3         1 6KW      -0.081400
     11 CAL          3.5000    -2.4960     1.5440 c3         1 6KW       0.138400
     12 O1           2.0830    -2.3280     1.4730 os         1 6KW      -0.452600
     13 C1           1.6040    -1.1420     2.1090 c3         1 6KW       0.324900
     14 O5           2.0050     0.0000     1.3480 os         1 6KW      -0.412600
     15 O6           3.4660     1.1910    -0.8230 oh         1 6KW      -0.605800
     16 O4          -0.4770    -0.0590    -1.3470 oh         1 6KW      -0.607800
     17 C2           0.0760    -1.1870     2.1920 c3         1 6KW       0.128100
     18 O2          -0.3990    -0.0250     2.8750 oh         1 6KW      -0.593800
     19 H1          -0.3600     0.9040     0.4770 h1         1 6KW       0.055700
     20 H2           1.8890    -0.8880    -0.5070 h1         1 6KW       0.072700
     21 H3           1.6110     1.2940    -1.7140 h1         1 6KW       0.035200
     22 H4           1.7550     2.1310    -0.1620 h1         1 6KW       0.035200
     23 H5          -0.1820    -2.1260     0.2750 hc         1 6KW       0.064200
     24 H6          -1.5860    -1.1940     0.8280 hc         1 6KW       0.064200
     25 H7           9.5500    -6.9690     0.6810 hc         1 6KW       0.032367
     26 H8           9.7310    -6.0820    -0.8390 hc         1 6KW       0.032367
     27 H9           9.5250    -7.8390    -0.8590 hc         1 6KW       0.032367
     28 H10          7.2390    -7.5810     0.0500 hc         1 6KW       0.040200
     29 H11          7.4190    -6.6940    -1.4700 hc         1 6KW       0.040200
     30 H12          7.8160    -4.6070    -0.2050 hc         1 6KW       0.041700
     31 H13          7.6350    -5.4930     1.3150 hc         1 6KW       0.041700
     32 H14          5.3240    -6.1060     0.6830 hc         1 6KW       0.042700
     33 H15          5.5040    -5.2190    -0.8370 hc         1 6KW       0.042700
     34 H16          5.9010    -3.1310     0.4280 hc         1 6KW       0.043200
     35 H17          5.7210    -4.0180     1.9480 hc         1 6KW       0.043200
     36 H18          3.5900    -3.7440    -0.2030 hc         1 6KW       0.051200
     37 H19          3.4100    -4.6310     1.3170 hc         1 6KW       0.051200
     38 H20          3.9870    -1.6570     1.0620 h1         1 6KW       0.036200
     39 H21          3.8060    -2.5440     2.5820 h1         1 6KW       0.036200
     40 H22          2.0170    -1.0700     3.1080 h2         1 6KW       0.075700
     41 H23          3.7770     1.9390    -1.3050 ho         1 6KW       0.400000
     42 H24         -1.3100     0.3800    -1.4050 ho         1 6KW       0.404000
     43 H25         -0.2290    -2.0780     2.7280 h1         1 6KW       0.048700
     44 H26         -0.7970    -0.2800     3.6910 ho         1 6KW       0.403000
@<TRIPOS>BOND
     1    15     3 1
     2    14    13 1
     3    14     2 1
     4     7     6 1
     5     7     8 1
     6     5     6 1
     7     9    10 1
     8     9     8 1
     9    11    10 1
    10    11    12 1
    11    13    12 1
    12    13    17 1
    13     3     2 1
    14    18    17 1
    15     2     1 1
    16    17     4 1
    17     1     4 1
    18     1    16 1
    19     1    19 1
    20     2    20 1
    21     3    21 1
    22     3    22 1
    23     4    23 1
    24     4    24 1
    25     5    25 1
    26     5    26 1
    27     5    27 1
    28     6    28 1
    29     6    29 1
    30     7    30 1
    31     7    31 1
    32     8    32 1
    33     8    33 1
    34     9    34 1
    35     9    35 1
    36    10    36 1
    37    10    37 1
    38    11    38 1
    39    11    39 1
    40    13    40 1
    41    15    41 1
    42    16    42 1
    43    17    43 1
    44    18    44 1
@<TRIPOS>SUBSTRUCTURE
     1 6KW         1 TEMP              0 ****  ****    0 ROOT
