@<TRIPOS>MOLECULE
molecule
   27    27     1     0     0
SMALL
bcc


@<TRIPOS>ATOM
      1 C10          0.0000     0.0000     0.0000 c          1 6KX       0.568100
      2 C02          2.0850     0.0000     1.1640 c2         1 6KX      -0.057400
      3 C03          1.4620     0.0000     0.0000 ce         1 6KX      -0.218400
      4 C04          2.1710    -0.0010    -1.3240 c3         1 6KX      -0.006800
      5 C05          3.6290     0.4230    -1.1410 c3         1 6KX      -0.071400
      6 C06          4.2390    -0.4070    -0.0050 c3         1 6KX      -0.082400
      7 C07          3.5790     0.0150     1.3100 c3         1 6KX      -0.044200
      8 C08          2.1260    -1.4090    -1.9220 c3         1 6KX      -0.080600
      9 C09          1.4730     0.9760    -2.2730 c3         1 6KX      -0.080600
     10 O11         -0.6070    -0.1020    -1.0460 o          1 6KX      -0.529100
     11 H1          -0.5420     0.1230     0.9300 h4         1 6KX      -0.002800
     12 H3           1.8980    -0.0300     3.2850 hc         1 6KX       0.047700
     13 H4           0.6130    -0.8860     2.4210 hc         1 6KX       0.047700
     14 H5           0.6340     0.8830     2.4480 hc         1 6KX       0.047700
     15 H8           4.1770     0.2430    -2.0580 hc         1 6KX       0.046200
     16 H9           3.6720     1.4750    -0.8850 hc         1 6KX       0.046200
     17 H10          5.3060    -0.2230     0.0470 hc         1 6KX       0.046700
     18 H11          4.0540    -1.4590    -0.1840 hc         1 6KX       0.046700
     19 H12          3.8690    -0.6740     2.0930 hc         1 6KX       0.055200
     20 H13          3.9030     1.0160     1.5680 hc         1 6KX       0.055200
     21 H14          2.9470    -1.5310    -2.6180 hc         1 6KX       0.039867
     22 H15          2.2120    -2.1410    -1.1290 hc         1 6KX       0.039867
     23 H16          1.1870    -1.5500    -2.4430 hc         1 6KX       0.039867
     24 H17          0.6170     0.4910    -2.7260 hc         1 6KX       0.039867
     25 H18          2.1660     1.2840    -3.0470 hc         1 6KX       0.039867
     26 H19          1.1430     1.8460    -1.7170 hc         1 6KX       0.039867
     27 C01          1.2490    -0.0090     2.4180 c3         1 6KX      -0.071900
@<TRIPOS>BOND
     1     5     6 1   
     2     5     4 1   
     3     6     7 1   
     4     8     4 1   
     5     4     9 1   
     6     4     3 1   
     7     7     2 1   
     8     3     2 2   
     9     3     1 1   
    10     2    27 1   
    11     1    10 2   
    12     1    11 1   
    13    27    12 1   
    14    27    13 1   
    15    27    14 1   
    16     5    15 1   
    17     5    16 1   
    18     6    17 1   
    19     6    18 1   
    20     7    19 1   
    21     7    20 1   
    22     8    21 1   
    23     8    22 1   
    24     8    23 1   
    25     9    24 1   
    26     9    25 1   
    27     9    26 1   
@<TRIPOS>SUBSTRUCTURE
     1 6KX         1 TEMP              0 ****  ****    0 ROOT
