@<TRIPOS>MOLECULE
6KZ
   68    70     1     0     0
SMALL
bcc


@<TRIPOS>ATOM
      1 C3         -1.7920    0.1390    1.4910 c3        1 6KZ      0.031000
      2 C2         -1.3880    1.4910    0.8840 c3        1 6KZ      0.114400
      3 O1          0.0190    1.6680    0.9510 os        1 6KZ     -0.363600
      4 C6          0.7070    0.6870    0.1990 c3        1 6KZ      0.114400
      5 C5          0.4210   -0.7320    0.7380 c3        1 6KZ      0.031000
      6 N4         -1.0000   -0.9770    0.9480 n         1 6KZ     -0.372800
      7 C7         -1.5750   -2.2030    0.9530 c         1 6KZ      0.642100
      8 O28        -2.7600   -2.4890    1.2180 o         1 6KZ     -0.600100
      9 N8         -0.7440   -3.4410    0.5540 n4        1 6KZ     -0.670800
     10 C9         -1.6200   -4.6410    0.3180 c3        1 6KZ      0.080500
     11 C27        -0.8190   -5.8520   -0.1790 c3        1 6KZ     -0.117400
     12 C31         0.0140   -5.5830   -1.4250 c3        1 6KZ     -0.077700
     13 C33         0.6340   -6.8930   -1.8810 c3        1 6KZ     -0.106600
     14 C32        -0.8020   -4.9770   -2.5460 c3        1 6KZ     -0.106600
     15 C10        -2.3170   -5.0270    1.6370 c         1 6KZ      0.551100
     16 O29        -1.7140   -5.1580    2.6920 o         1 6KZ     -0.391100
     17 N11        -3.7940   -5.1890    1.5730 n4        1 6KZ     -0.647800
     18 C12        -4.4370   -5.8070    2.8040 c3        1 6KZ      0.136500
     19 C13        -5.5900   -4.9360    3.3130 c3        1 6KZ     -0.113400
     20 C14        -5.1420   -3.5780    3.7840 c3        1 6KZ     -0.122100
     21 C15        -4.9650   -7.2330    2.4930 c3        1 6KZ      0.114800
     22 O30        -5.7520   -7.1320    1.3190 oh        1 6KZ     -0.623800
     23 C16        -3.8340   -8.1980    2.2670 cc        1 6KZ      0.488300
     24 N20        -3.9220   -9.5660    2.5990 nc        1 6KZ     -0.681000
     25 N17        -2.6330   -7.9000    1.7050 nd        1 6KZ     -0.488300
     26 O18        -1.9350   -9.0090    1.6650 os        1 6KZ     -0.131100
     27 C19        -2.7340  -10.0690    2.2230 cd        1 6KZ      0.655900
     28 C21        -2.1650  -11.3920    2.2830 ca        1 6KZ     -0.211500
     29 C22        -0.8610  -11.6280    1.8130 ca        1 6KZ     -0.062000
     30 C23        -0.3250  -12.9090    1.8780 ca        1 6KZ     -0.134500
     31 C24        -1.0790  -13.9600    2.4090 ca        1 6KZ     -0.057000
     32 C25        -2.3740  -13.7270    2.8760 ca        1 6KZ     -0.134500
     33 C26        -2.9240  -12.4490    2.8170 ca        1 6KZ     -0.062000
     34 H15        -5.5870   -7.5750    3.3730 h1        1 6KZ      0.130700
     35 H31C       -1.6210    0.1640    2.6060 h1        1 6KZ      0.084700
     36 H32C       -2.8850   -0.0480    1.2880 h1        1 6KZ      0.084700
     37 H21C       -1.7480    1.5830   -0.1740 h1        1 6KZ      0.096450
     38 H22C       -1.8120    2.3200    1.5150 h1        1 6KZ      0.096450
     39 H61C        0.4300    0.7560   -0.8860 h1        1 6KZ      0.096450
     40 H62C        1.7970    0.9240    0.3430 h1        1 6KZ      0.096450
     41 H51C        0.9510   -0.8530    1.7290 h1        1 6KZ      0.084700
     42 H52C        0.8510   -1.4570   -0.0050 h1        1 6KZ      0.084700
     43 H8         -0.2240   -3.2650   -0.3190 hn        1 6KZ      0.480300
     44 H9         -2.3730   -4.3370   -0.4740 hx        1 6KZ      0.139700
     45 H271       -0.1580   -6.2390    0.6440 hc        1 6KZ      0.110700
     46 H272       -1.5660   -6.6620   -0.4130 hc        1 6KZ      0.110700
     47 H31         0.8610   -4.8850   -1.1660 hc        1 6KZ      0.034700
     48 H331        1.3170   -6.7070   -2.7460 hc        1 6KZ      0.058200
     49 H332       -0.1570   -7.6120   -2.2060 hc        1 6KZ      0.058200
     50 H333        1.2250   -7.3580   -1.0560 hc        1 6KZ      0.058200
     51 H321       -1.6980   -5.6040   -2.7710 hc        1 6KZ      0.058200
     52 H322       -0.1830   -4.9180   -3.4770 hc        1 6KZ      0.058200
     53 H323       -1.1410   -3.9430   -2.2940 hc        1 6KZ      0.058200
     54 H11        -4.1970   -4.2440    1.4370 hn        1 6KZ      0.489800
     55 H12        -3.6450   -5.8900    3.6090 hx        1 6KZ      0.139700
     56 H131       -6.3840   -4.8470    2.5230 hc        1 6KZ      0.099700
     57 H132       -6.0520   -5.4890    4.1780 hc        1 6KZ      0.099700
     58 H141       -4.7830   -2.9330    2.9440 hc        1 6KZ      0.059367
     59 H142       -4.3260   -3.6650    4.5420 hc        1 6KZ      0.059367
     60 H143       -6.0050   -3.0520    4.2660 hc        1 6KZ      0.059367
     61 H30        -6.2510   -7.9580    1.2200 ho        1 6KZ      0.471000
     62 H22        -0.2680  -10.7990    1.3970 ha        1 6KZ      0.151000
     63 H26        -3.9460  -12.2720    3.1890 ha        1 6KZ      0.151000
     64 H23         0.6960  -13.0970    1.5110 ha        1 6KZ      0.161000
     65 H24        -0.6500  -14.9740    2.4580 ha        1 6KZ      0.163000
     66 H25        -2.9660  -14.5570    3.2950 ha        1 6KZ      0.161000
     67 H82        -0.0710   -3.6490    1.3040 hn        1 6KZ      0.480300
     68 H112       -4.0410   -5.7690    0.7540 hn        1 6KZ      0.489800
@<TRIPOS>BOND
     1    1    2 1   
     2    1    6 1   
     3    1   35 1   
     4    1   36 1   
     5    2    3 1   
     6    2   37 1   
     7    2   38 1   
     8    3    4 1   
     9    4    5 1   
    10    4   39 1   
    11    4   40 1   
    12    5    6 1   
    13    5   41 1   
    14    5   42 1   
    15    6    7 1   
    16    7    8 2   
    17    7    9 1   
    18    9   10 1   
    19    9   43 1   
    20    9   67 1   
    21   10   11 1   
    22   10   15 1   
    23   10   44 1   
    24   11   12 1   
    25   11   45 1   
    26   11   46 1   
    27   12   13 1   
    28   12   14 1   
    29   12   47 1   
    30   13   48 1   
    31   13   49 1   
    32   13   50 1   
    33   14   51 1   
    34   14   52 1   
    35   14   53 1   
    36   15   16 2   
    37   15   17 1   
    38   17   18 1   
    39   17   54 1   
    40   17   68 1   
    41   18   19 1   
    42   18   21 1   
    43   18   55 1   
    44   19   20 1   
    45   19   56 1   
    46   19   57 1   
    47   20   58 1   
    48   20   59 1   
    49   20   60 1   
    50   21   22 1   
    51   21   23 1   
    52   21   34 1   
    53   22   61 1   
    54   23   24 1   
    55   23   25 2   
    56   24   27 2   
    57   25   26 1   
    58   26   27 1   
    59   27   28 1   
    60   28   29 ar  
    61   28   33 ar  
    62   29   30 ar  
    63   29   62 1   
    64   30   31 ar  
    65   30   64 1   
    66   31   32 ar  
    67   31   65 1   
    68   32   33 ar  
    69   32   66 1   
    70   33   63 1   
@<TRIPOS>SUBSTRUCTURE
     1 6KZ         1 TEMP              0 ****  ****    0 ROOT
