@<TRIPOS>MOLECULE
molecule
   88    88     1     0     0
SMALL
bcc


@<TRIPOS>ATOM
      1 CBA          0.0000     0.0000     0.0000 c3         1 6L0      -0.151400
      2 CAX          1.5310     0.0000     0.0000 c3         1 6L0      -0.160400
      3 CBJ          2.0320     0.0000     1.4200 c          1 6L0       0.655100
      4 OAC          1.2530    -0.0810     2.3460 o          1 6L0      -0.602100
      5 NBG          3.3700     0.0900     1.6530 ns         1 6L0      -0.585900
      6 CAU          3.8030     0.0240     3.0620 c3         1 6L0       0.093000
      7 CAO          5.0820     0.8460     3.2290 c3         1 6L0      -0.097400
      8 CAL          5.5160     0.8210     4.6970 c3         1 6L0      -0.079400
      9 CAR          4.5310    -0.0310     5.5020 c3         1 6L0      -0.112400
     10 CBC          5.1840    -0.4590     6.8180 c3         1 6L0       0.112000
     11 NBO          4.6220     0.3530     7.9150 n          1 6L0      -0.383300
     12 OAH          4.5530     1.7650     7.8350 oh         1 6L0      -0.361100
     13 CBL          4.1750    -0.3230     9.0090 c          1 6L0       0.661100
     14 OAE          3.7050     0.2780     9.9510 o          1 6L0      -0.590100
     15 CAZ          4.2710    -1.8260     9.0320 c3         1 6L0      -0.143400
     16 CAW          4.1170    -2.3260    10.4690 c3         1 6L0      -0.154400
     17 CBH          2.6740    -2.6800    10.7270 c          1 6L0       0.656100
     18 NBE          2.3530    -3.3330    11.8810 ns         1 6L0      -0.584900
     19 CAS          0.9110    -3.5640    12.1100 c3         1 6L0       0.097000
     20 CAM          0.5140    -4.8960    11.4710 c3         1 6L0      -0.056200
     21 CAJ         -0.9870    -5.0310    11.4850 c2         1 6L0      -0.165200
     22 CAP         -1.5690    -5.9870    10.8060 c2         1 6L0      -0.192200
     23 CBB         -3.0710    -6.1130    10.8210 c3         1 6L0       0.138200
     24 NBN         -3.4950    -6.8860     9.6340 n          1 6L0      -0.385300
     25 OAG         -3.4170    -8.2990     9.5890 oh         1 6L0      -0.376100
     26 CBK         -3.9690    -6.1540     8.5850 c          1 6L0       0.685100
     27 OAD         -4.0210    -4.9440     8.6520 o          1 6L0      -0.585100
     28 CAY         -4.4250    -6.8730     7.3420 c3         1 6L0      -0.152400
     29 CAV         -4.1460    -6.0010     6.1160 c3         1 6L0      -0.154400
     30 CBI         -5.4500    -5.5700     5.4980 c          1 6L0       0.659100
     31 OAB         -6.4770    -5.6030     6.1430 o          1 6L0      -0.601100
     32 NBF         -5.4630    -5.1430     4.2060 ns         1 6L0      -0.583900
     33 CAT         -4.1680    -5.1380     3.4960 c3         1 6L0       0.087000
     34 CAN         -4.4310    -5.0930     1.9890 c3         1 6L0      -0.097400
     35 CAK         -3.9870    -3.7380     1.4350 c3         1 6L0      -0.087400
     36 CAQ         -2.4910    -3.7830     1.1140 c3         1 6L0      -0.102400
     37 CBD         -2.2330    -3.0820    -0.2210 c3         1 6L0       0.105000
     38 NBP         -1.7970    -1.6970     0.0430 n          1 6L0      -0.377300
     39 CBM         -0.5020    -1.4000    -0.2460 c          1 6L0       0.684100
     40 OAF          0.2380    -2.2490    -0.6960 o          1 6L0      -0.610100
     41 OAI         -2.6830    -0.7270     0.5700 oh         1 6L0      -0.364100
     42 H1          -0.3610     0.3500     0.9600 hc         1 6L0       0.085700
     43 H2          -0.3610     0.6560    -0.7830 hc         1 6L0       0.085700
     44 H3           1.8920     0.8850    -0.5110 hc         1 6L0       0.078700
     45 H4           1.8920    -0.8840    -0.5110 hc         1 6L0       0.078700
     46 H5           4.0200    -0.1100     0.9190 hn         1 6L0       0.312500
     47 H6           3.0260     0.4270     3.7000 h1         1 6L0       0.062700
     48 H7           3.9970    -1.0070     3.3340 h1         1 6L0       0.062700
     49 H8           4.8960     1.8690     2.9250 hc         1 6L0       0.045700
     50 H9           5.8670     0.4230     2.6130 hc         1 6L0       0.045700
     51 H10          6.5090     0.3950     4.7740 hc         1 6L0       0.046200
     52 H11          5.5250     1.8310     5.0890 hc         1 6L0       0.046200
     53 H12          3.6400     0.5490     5.7120 hc         1 6L0       0.069700
     54 H13          4.2620    -0.9100     4.9290 hc         1 6L0       0.069700
     55 H14          6.2540    -0.3010     6.7600 h1         1 6L0       0.053700
     56 H15          4.9810    -1.5070     7.0000 h1         1 6L0       0.053700
     57 H16          5.0510     2.1440     8.5400 ho         1 6L0       0.404000
     58 H17          3.4850    -2.2480     8.4170 hc         1 6L0       0.078200
     59 H18          5.2360    -2.1320     8.6450 hc         1 6L0       0.078200
     60 H19          4.4260    -1.5480    11.1570 hc         1 6L0       0.073200
     61 H20          4.7360    -3.2030    10.6150 hc         1 6L0       0.073200
     62 H21          2.9870    -3.3230    12.6550 hn         1 6L0       0.311500
     63 H22          0.3390    -2.7610    11.6610 h1         1 6L0       0.057700
     64 H23          0.7130    -3.5990    13.1750 h1         1 6L0       0.057700
     65 H24          0.9550    -5.7110    12.0320 hc         1 6L0       0.058200
     66 H25          0.8700    -4.9260    10.4480 hc         1 6L0       0.058200
     67 H26         -1.5860    -4.3330    12.0580 ha         1 6L0       0.123000
     68 H27         -0.9720    -6.6840    10.2310 ha         1 6L0       0.139000
     69 H28         -3.3830    -6.6290    11.7220 h1         1 6L0       0.073700
     70 H29         -3.5200    -5.1280    10.7930 h1         1 6L0       0.073700
     71 H30         -4.0420    -8.6680    10.1910 ho         1 6L0       0.398000
     72 H31         -5.4880    -7.0710     7.4090 hc         1 6L0       0.085200
     73 H32         -3.8890    -7.8090     7.2490 hc         1 6L0       0.085200
     74 H33         -3.5740    -6.5690     5.3920 hc         1 6L0       0.077200
     75 H34         -3.5820    -5.1260     6.4150 hc         1 6L0       0.077200
     76 H35         -6.2190    -4.5770     3.8730 hn         1 6L0       0.326500
     77 H36         -3.5950    -4.2670     3.7910 h1         1 6L0       0.048700
     78 H37         -3.6160    -6.0370     3.7410 h1         1 6L0       0.048700
     79 H38         -5.4890    -5.2300     1.8030 hc         1 6L0       0.052700
     80 H39         -3.8730    -5.8830     1.5010 hc         1 6L0       0.052700
     81 H40         -4.1750    -2.9670     2.1720 hc         1 6L0       0.047700
     82 H41         -4.5430    -3.5180     0.5320 hc         1 6L0       0.047700
     83 H42         -1.9380    -3.2800     1.8990 hc         1 6L0       0.060200
     84 H43         -2.1660    -4.8150     1.0490 hc         1 6L0       0.060200
     85 H44         -1.4590    -3.6090    -0.7650 h1         1 6L0       0.068200
     86 H45         -3.1450    -3.0700    -0.8070 h1         1 6L0       0.068200
     87 H46         -3.1620    -0.3230    -0.1340 ho         1 6L0       0.392000
     88 OAA          1.8150    -2.3880     9.9230 o          1 6L0      -0.587100
@<TRIPOS>BOND
     1    23    22 1
     2    23    24 1
     3    22    21 2
     4    25    24 1
     5    34    33 1
     6    34    35 1
     7    24    26 1
     8    21    20 1
     9    33    32 1
    10    20    19 1
    11    26    28 1
    12    26    27 2
    13    41    38 1
    14    35    36 1
    15    12    11 1
    16    36    37 1
    17    28    29 1
    18    37    38 1
    19    32    30 1
    20    19    18 1
    21    10    11 1
    22    10     9 1
    23    11    13 1
    24    38    39 1
    25    29    30 1
    26    88    17 2
    27    14    13 2
    28     9     8 1
    29    30    31 2
    30    13    15 1
    31    18    17 1
    32    39    40 2
    33    39     1 1
    34    17    16 1
    35    15    16 1
    36     8     7 1
    37     1     2 1
    38     7     6 1
    39     2     3 1
    40     4     3 2
    41     3     5 1
    42     6     5 1
    43     1    42 1
    44     1    43 1
    45     2    44 1
    46     2    45 1
    47     5    46 1
    48     6    47 1
    49     6    48 1
    50     7    49 1
    51     7    50 1
    52     8    51 1
    53     8    52 1
    54     9    53 1
    55     9    54 1
    56    10    55 1
    57    10    56 1
    58    12    57 1
    59    15    58 1
    60    15    59 1
    61    16    60 1
    62    16    61 1
    63    18    62 1
    64    19    63 1
    65    19    64 1
    66    20    65 1
    67    20    66 1
    68    21    67 1
    69    22    68 1
    70    23    69 1
    71    23    70 1
    72    25    71 1
    73    28    72 1
    74    28    73 1
    75    29    74 1
    76    29    75 1
    77    32    76 1
    78    33    77 1
    79    33    78 1
    80    34    79 1
    81    34    80 1
    82    35    81 1
    83    35    82 1
    84    36    83 1
    85    36    84 1
    86    37    85 1
    87    37    86 1
    88    41    87 1
@<TRIPOS>SUBSTRUCTURE
     1 6L0         1 TEMP              0 ****  ****    0 ROOT
