@<TRIPOS>MOLECULE
6L0
   88    90     1     0     0
SMALL
bcc


@<TRIPOS>ATOM
      1 CBA          0.0000     0.0000     0.0000 c3         1 6L0      -0.133000
      2 CAX          1.5310     0.0000     0.0000 c3         1 6L0      -0.136000
      3 CBJ          2.0320     0.0000     1.4200 c2         1 6L0       0.223000
      4 OAC          1.2530    -0.0810     2.3460 o          1 6L0      -0.399000
      5 NBG          3.3700     0.0900     1.6530 ns         1 6L0      -0.024000
      6 CAU          3.8030     0.0240     3.0620 c3         1 6L0      -0.099000
      7 CAO          5.0820     0.8460     3.2290 c3         1 6L0      -0.120000
      8 CAL          5.5160     0.8210     4.6970 c3         1 6L0      -0.098000
      9 CAR          4.5310    -0.0310     5.5020 c3         1 6L0      -0.154000
     10 CBC          5.1840    -0.4590     6.8180 c3         1 6L0      -0.083000
     11 NBO          4.6220     0.3530     7.9150 n          1 6L0       0.073000
     12 OAH          4.5530     1.7650     7.8350 oh         1 6L0      -0.230000
     13 CBL          4.1750    -0.3230     9.0090 c2         1 6L0       0.224000
     14 OAE          3.7050     0.2780     9.9510 o          1 6L0      -0.387000
     15 CAZ          4.2710    -1.8260     9.0320 c3         1 6L0      -0.130000
     16 CAW          4.1170    -2.3260    10.4690 c3         1 6L0      -0.122000
     17 CBH          2.6740    -2.6800    10.7270 c2         1 6L0       0.228000
     18 NBE          2.3530    -3.3330    11.8810 ns         1 6L0      -0.031000
     19 CAS          0.9110    -3.5640    12.1100 c3         1 6L0      -0.086000
     20 CAM          0.5140    -4.8960    11.4710 DU         1 6L0      -0.041000
     21 CAJ         -0.9870    -5.0310    11.4850 c2         1 6L0      -0.117000
     22 CAP         -1.5690    -5.9870    10.8060 c2         1 6L0      -0.135000
     23 CBB         -3.0710    -6.1130    10.8210 DU         1 6L0       0.069000
     24 NBN         -3.4950    -6.8860     9.6340 n          1 6L0       0.045000
     25 OAG         -3.4170    -8.2990     9.5890 oh         1 6L0      -0.240000
     26 CBK         -3.9690    -6.1540     8.5850 c2         1 6L0       0.251000
     27 OAD         -4.0210    -4.9440     8.6520 o          1 6L0      -0.381000
     28 CAY         -4.4250    -6.8730     7.3420 c3         1 6L0      -0.135000
     29 CAV         -4.1460    -6.0010     6.1160 c3         1 6L0      -0.137000
     30 CBI         -5.4500    -5.5700     5.4980 c2         1 6L0       0.228000
     31 OAB         -6.4770    -5.6030     6.1430 o          1 6L0      -0.398000
     32 NBF         -5.4630    -5.1430     4.2060 ns         1 6L0      -0.025000
     33 CAT         -4.1680    -5.1380     3.4960 c3         1 6L0      -0.097000
     34 CAN         -4.4310    -5.0930     1.9890 c3         1 6L0      -0.119000
     35 CAK         -3.9870    -3.7380     1.4350 c3         1 6L0      -0.114000
     36 CAQ         -2.4910    -3.7830     1.1140 c3         1 6L0      -0.130000
     37 CBD         -2.2330    -3.0820    -0.2210 c3         1 6L0      -0.084000
     38 NBP         -1.7970    -1.6970     0.0430 n          1 6L0       0.078000
     39 CBM         -0.5020    -1.4000    -0.2460 c2         1 6L0       0.246000
     40 OAF          0.2380    -2.2490    -0.6960 o          1 6L0      -0.410000
     41 OAI         -2.6830    -0.7270     0.5700 oh         1 6L0      -0.237000
     42 H1          -0.3610     0.3500     0.9600 hc         1 6L0       0.090500
     43 H2          -0.3610     0.6560    -0.7830 hc         1 6L0       0.090500
     44 H3           1.8920     0.8850    -0.5110 hc         1 6L0       0.086500
     45 H4           1.8920    -0.8840    -0.5110 hc         1 6L0       0.086500
     46 H5           3.9720     0.4930     0.9630 hn         1 6L0       0.091000
     47 H6           3.0260     0.4270     3.7000 h1         1 6L0       0.084500
     48 H7           3.9970    -1.0070     3.3340 h1         1 6L0       0.084500
     49 H8           4.8960     1.8690     2.9250 hc         1 6L0       0.053500
     50 H9           5.8670     0.4230     2.6130 hc         1 6L0       0.053500
     51 H10          6.5090     0.3950     4.7740 hc         1 6L0       0.056500
     52 H11          5.5250     1.8310     5.0890 hc         1 6L0       0.056500
     53 H12          3.6400     0.5490     5.7120 hc         1 6L0       0.086500
     54 H13          4.2620    -0.9100     4.9290 hc         1 6L0       0.086500
     55 H14          4.9810    -1.5070     7.0000 h1         1 6L0       0.069000
     56 H15          6.2540    -0.3010     6.7600 h1         1 6L0       0.069000
     57 H16          5.1290     2.1440     8.4790 ho         1 6L0       0.194000
     58 H17          5.2360    -2.1320     8.6450 hc         1 6L0       0.087000
     59 H18          3.4850    -2.2480     8.4170 hc         1 6L0       0.087000
     60 H19          4.7360    -3.2030    10.6150 hc         1 6L0       0.078500
     61 H20          4.4260    -1.5480    11.1570 hc         1 6L0       0.078500
     62 H21          3.0310    -3.9150    12.3320 hn         1 6L0       0.086000
     63 H22          0.7130    -3.5990    13.1750 h1         1 6L0       0.083500
     64 H23          0.3390    -2.7610    11.6610 h1         1 6L0       0.083500
     65 H24          0.9550    -5.7110    12.0310 ha         1 6L0       0.054000
     66 H25          0.8700    -4.9260    10.4480 ha         1 6L0       0.054000
     67 H26         -0.3130    -5.6550    12.0590 DU         1 6L0       0.047000
     68 H27         -2.1370    -6.4230    11.6190 DU         1 6L0       0.003000
     69 H28         -3.3830    -6.6290    11.7220 ha         1 6L0       0.068000
     70 H29         -3.5200    -5.1280    10.7930 ha         1 6L0       0.068000
     71 H30         -4.0520    -8.6680    10.1800 ho         1 6L0       0.189000
     72 H31         -5.4880    -7.0710     7.4090 hc         1 6L0       0.091500
     73 H32         -3.8890    -7.8090     7.2490 hc         1 6L0       0.091500
     74 H33         -3.5820    -5.1260     6.4150 hc         1 6L0       0.088500
     75 H34         -3.5740    -6.5690     5.3920 hc         1 6L0       0.088500
     76 H35         -6.2190    -4.5770     3.8730 hn         1 6L0       0.104000
     77 H36         -3.6160    -6.0370     3.7410 h1         1 6L0       0.066500
     78 H37         -3.5950    -4.2670     3.7910 h1         1 6L0       0.066500
     79 H38         -3.8730    -5.8830     1.5010 hc         1 6L0       0.064000
     80 H39         -5.4890    -5.2300     1.8030 hc         1 6L0       0.064000
     81 H40         -4.5430    -3.5180     0.5320 hc         1 6L0       0.060500
     82 H41         -4.1750    -2.9670     2.1720 hc         1 6L0       0.060500
     83 H42         -1.9380    -3.2800     1.8990 hc         1 6L0       0.071500
     84 H43         -2.1660    -4.8150     1.0490 hc         1 6L0       0.071500
     85 H44         -1.4590    -3.6090    -0.7650 h1         1 6L0       0.081000
     86 H45         -3.1450    -3.0700    -0.8070 h1         1 6L0       0.081000
     87 H46         -3.1620    -0.3220    -0.1340 ho         1 6L0       0.186000
     88 OAA          1.8150    -2.3880     9.9230 o          1 6L0      -0.376000
@<TRIPOS>BOND
     1     1     2 1   
     2     1    39 1   
     3     1    42 1   
     4     1    43 1   
     5     2     3 1   
     6     2    44 1   
     7     2    45 1   
     8     3     4 1   
     9     3     5 1   
    10     5     6 1   
    11     5    46 1   
    12     6     7 1   
    13     6    47 1   
    14     6    48 1   
    15     7     8 1   
    16     7    49 1   
    17     7    50 1   
    18     8     9 1   
    19     8    51 1   
    20     8    52 1   
    21     9    10 1   
    22     9    53 1   
    23     9    54 1   
    24    10    11 1   
    25    10    55 1   
    26    10    56 1   
    27    11    12 1   
    28    11    13 1   
    29    12    57 1   
    30    13    14 1   
    31    13    15 1   
    32    15    16 1   
    33    15    58 1   
    34    15    59 1   
    35    16    17 1   
    36    16    60 1   
    37    16    61 1   
    38    17    18 1   
    39    17    88 1   
    40    18    19 1   
    41    18    62 1   
    42    19    20 1   
    43    19    63 1   
    44    19    64 1   
    45    20    21 1   
    46    20    65 1   
    47    20    66 1   
    48    20    67 1   
    49    21    22 1   
    50    21    67 1   
    51    22    23 1   
    52    22    68 1   
    53    23    24 1   
    54    23    68 1   
    55    23    69 1   
    56    23    70 1   
    57    24    25 1   
    58    24    26 1   
    59    25    71 1   
    60    26    27 1   
    61    26    28 1   
    62    28    29 1   
    63    28    72 1   
    64    28    73 1   
    65    29    30 1   
    66    29    74 1   
    67    29    75 1   
    68    30    31 1   
    69    30    32 1   
    70    32    33 1   
    71    32    76 1   
    72    33    34 1   
    73    33    77 1   
    74    33    78 1   
    75    34    35 1   
    76    34    79 1   
    77    34    80 1   
    78    35    36 1   
    79    35    81 1   
    80    35    82 1   
    81    36    37 1   
    82    36    83 1   
    83    36    84 1   
    84    37    38 1   
    85    37    85 1   
    86    37    86 1   
    87    38    39 1   
    88    38    41 1   
    89    39    40 1   
    90    41    87 1   
@<TRIPOS>SUBSTRUCTURE
     1 6L0         1 TEMP              0 ****  ****    0 ROOT
