@<TRIPOS>MOLECULE
molecule
   60    62     1     0     0
SMALL
bcc


@<TRIPOS>ATOM
      1 C8           0.0000     0.0000     0.0000 c3         1 6L2       0.127700
      2 O2           1.4290     0.0000     0.0000 os         1 6L2      -0.421600
      3 C5           2.0110     0.0000     1.3060 c3         1 6L2       0.153100
      4 C6           3.3590    -0.7210     1.2630 c3         1 6L2      -0.055400
      5 C4           2.2180     1.4420     1.7720 c3         1 6L2      -0.104400
      6 C3           3.1510     2.1640     0.7990 c3         1 6L2      -0.058400
      7 C2           4.5000     1.4430     0.7550 c3         1 6L2      -0.059400
      8 C1           4.2930     0.0000     0.2890 c3         1 6L2      -0.196900
      9 S1           5.8920    -0.8550     0.2370 s6         1 6L2       1.316600
     10 O1           6.5720    -0.7130     1.4770 o          1 6L2      -0.611800
     11 O4           5.7590    -2.1260    -0.3840 o          1 6L2      -0.611800
     12 N5           6.7990     0.0290    -0.8290 ns         1 6L2      -0.641300
     13 C7           6.4460     0.0840    -2.1290 c          1 6L2       0.695700
     14 O8           5.4130    -0.4360    -2.5010 o          1 6L2      -0.550100
     15 C9           7.3120     0.7770    -3.0990 ca         1 6L2      -0.233600
     16 C14          8.5020     1.3720    -2.6740 ca         1 6L2      -0.009000
     17 C10          6.9460     0.8370    -4.4520 ca         1 6L2       0.247100
     18 O3           5.7930     0.2570    -4.8680 os         1 6L2      -0.278900
     19 C20          5.4810     0.3540    -6.2600 c3         1 6L2       0.121700
     20 C11          7.7600     1.4880    -5.3640 ca         1 6L2      -0.337000
     21 C12          8.9380     2.0820    -4.9450 ca         1 6L2       0.219100
     22 O5           9.7330     2.7180    -5.8430 os         1 6L2      -0.311900
     23 C15          9.2920     2.7350    -7.2020 c3         1 6L2       0.123700
     24 C13          9.3160     2.0240    -3.5930 ca         1 6L2      -0.092000
     25 C16         10.5750     2.6550    -3.1490 cc         1 6L2       0.025900
     26 S20         12.1460     2.4180    -3.9030 ss         1 6L2      -0.054800
     27 C17         10.6940     3.5110    -2.0990 cc         1 6L2      -0.155000
     28 C18         11.9680     3.9720    -1.8740 cc         1 6L2      -0.135000
     29 C19         12.9060     3.4980    -2.7410 cd         1 6L2       0.051900
     30 C21         14.2980     3.8300    -2.7130 ch         1 6L2      -0.064000
     31 C22         15.4450     4.0830    -2.6940 c1         1 6L2      -0.091100
     32 C23         16.5870     4.6360    -2.6580 c3         1 6L2       0.199500
     33 O24         17.4170     3.2390    -3.0840 oh         1 6L2      -0.628800
     34 H1          -0.3610    -0.9840     0.2730 h1         1 6L2       0.030367
     35 H2          -0.3610     0.2560    -0.9890 h1         1 6L2       0.030367
     36 H3          -0.3610     0.7280     0.7160 h1         1 6L2       0.030367
     37 H4           1.3530    -0.5100     1.9990 h1         1 6L2       0.038700
     38 H5           3.7250    -0.8410     2.2750 hc         1 6L2       0.063700
     39 H6           3.2200    -1.6980     0.8150 hc         1 6L2       0.063700
     40 H7           2.5240     1.4340     2.8110 hc         1 6L2       0.046200
     41 H8           1.2810     1.9780     1.6810 hc         1 6L2       0.046200
     42 H9           2.6460     2.2760    -0.1530 hc         1 6L2       0.049700
     43 H10          3.3840     3.1440     1.1970 hc         1 6L2       0.049700
     44 H11          5.1120     1.8900    -0.0190 hc         1 6L2       0.044700
     45 H12          4.9920     1.5630     1.7130 hc         1 6L2       0.044700
     46 H13          3.8480     0.0030    -0.6990 h1         1 6L2       0.144700
     47 H14          7.3630     0.7870    -0.4980 hn         1 6L2       0.336500
     48 H15          8.8170     1.2760    -1.6420 ha         1 6L2       0.149000
     49 H16          4.4670     0.0130    -6.4280 h1         1 6L2       0.045033
     50 H17          5.5730     1.3850    -6.5790 h1         1 6L2       0.045033
     51 H18          6.1680    -0.2620    -6.8270 h1         1 6L2       0.045033
     52 H19          7.4760     1.5330    -6.4090 ha         1 6L2       0.152000
     53 H20          8.9280     1.7530    -7.4760 h1         1 6L2       0.047033
     54 H21         10.1190     3.0070    -7.8460 h1         1 6L2       0.047033
     55 H22          8.4940     3.4600    -7.3130 h1         1 6L2       0.047033
     56 H23          9.8840     3.8600    -1.4700 ha         1 6L2       0.148000
     57 H24         12.2650     4.6570    -1.0890 ha         1 6L2       0.152000
     58 H25         16.8440     4.9760    -1.6620 h1         1 6L2       0.073200
     59 H26         16.6870     5.4140    -3.4050 h1         1 6L2       0.073200
     60 H27         18.3370     3.4320    -3.1630 ho         1 6L2       0.374000
@<TRIPOS>BOND
     1    28    27 1   
     2    28    29 2   
     3    27    25 2   
     4    10     9 2   
     5    29    30 1   
     6    29    26 1   
     7    30    31 3   
     8    14    13 2   
     9    31    32 1   
    10    32    33 1   
    11    25    24 1   
    12    25    26 1   
    13    16    24 ar  
    14    16    15 ar  
    15    13    15 1   
    16    13    12 1   
    17    24    21 ar  
    18     9    12 1   
    19     9    11 2   
    20     9     8 1   
    21    15    17 ar  
    22     7     8 1   
    23     7     6 1   
    24    21    22 1   
    25    21    20 ar  
    26    17    20 ar  
    27    17    18 1   
    28     8     4 1   
    29    22    23 1   
    30    18    19 1   
    31     6     5 1   
    32     4     3 1   
    33     5     3 1   
    34     3     2 1   
    35     2     1 1   
    36     1    34 1   
    37     1    35 1   
    38     1    36 1   
    39     3    37 1   
    40     4    38 1   
    41     4    39 1   
    42     5    40 1   
    43     5    41 1   
    44     6    42 1   
    45     6    43 1   
    46     7    44 1   
    47     7    45 1   
    48     8    46 1   
    49    12    47 1   
    50    16    48 1   
    51    19    49 1   
    52    19    50 1   
    53    19    51 1   
    54    20    52 1   
    55    23    53 1   
    56    23    54 1   
    57    23    55 1   
    58    27    56 1   
    59    28    57 1   
    60    32    58 1   
    61    32    59 1   
    62    33    60 1   
@<TRIPOS>SUBSTRUCTURE
     1 6L2         1 TEMP              0 ****  ****    0 ROOT
