@<TRIPOS>MOLECULE
molecule
   27    27     1     0     0
SMALL
bcc


@<TRIPOS>ATOM
      1 C            0.0000     0.0000     0.0000 c3         1 6L3      -0.058800
      2 H1          -0.3610    -0.0580    -1.0200 hc         1 6L3       0.051367
      3 H2          -0.3480     0.9200     0.4540 hc         1 6L3       0.051367
      4 H3          -0.3740    -0.8460     0.5640 hc         1 6L3       0.051367
      5 C1           1.5070     0.0000     0.0000 ca         1 6L3      -0.033300
      6 C2           2.2080     0.0000     1.2080 ca         1 6L3      -0.122600
      7 C3           3.6040    -0.0000     1.1970 ca         1 6L3      -0.033300
      8 C4           4.2820     0.0000    -0.0040 ca         1 6L3      -0.139000
      9 C5           3.5810     0.0010    -1.1970 ca         1 6L3      -0.056300
     10 C6           2.1980    -0.0040    -1.1950 ca         1 6L3      -0.139000
     11 C7           4.3690    -0.0000     2.4950 c3         1 6L3      -0.058800
     12 C8           4.3280     0.0030    -2.5060 c3         1 6L3      -0.050800
     13 C9           1.4750    -0.0010     2.4900 c          1 6L3       0.652700
     14 O2           1.1740    -1.0520     3.0170 o          1 6L3      -0.539000
     15 O1           1.1420     1.1660     3.0750 os         1 6L3      -0.423900
     16 C11          0.4220     1.0890     4.3340 c3         1 6L3       0.136700
     17 H4           5.3650     0.0030    -0.0140 ha         1 6L3       0.136000
     18 H5           1.6560    -0.0040    -2.1330 ha         1 6L3       0.136000
     19 H6           5.4300    -0.0690     2.2880 hc         1 6L3       0.051367
     20 H7           4.1650     0.9160     3.0350 hc         1 6L3       0.051367
     21 H8           4.0620    -0.8490     3.0950 hc         1 6L3       0.051367
     22 H9           4.5130    -1.0180    -2.8170 hc         1 6L3       0.045700
     23 H10          3.7370     0.5080    -3.2600 hc         1 6L3       0.045700
     24 H11          5.2730     0.5190    -2.3820 hc         1 6L3       0.045700
     25 H12          1.0150     0.5430     5.0570 h1         1 6L3       0.048367
     26 H13         -0.5210     0.5790     4.1810 h1         1 6L3       0.048367
     27 H14          0.2340     2.0900     4.7040 h1         1 6L3       0.048367
@<TRIPOS>BOND
     1     1     2 1
     2     1     3 1
     3     1     4 1
     4     1     5 1
     5     5     6 ar
     6     6     7 ar
     7     7     8 ar
     8     8     9 ar
     9     9    10 ar
    10    10     5 ar
    11     7    11 1
    12     9    12 1
    13     6    13 1
    14    13    14 2
    15    13    15 1
    16    15    16 1
    17     8    17 1
    18    10    18 1
    19    11    19 1
    20    11    20 1
    21    11    21 1
    22    12    22 1
    23    12    23 1
    24    12    24 1
    25    16    25 1
    26    16    26 1
    27    16    27 1
@<TRIPOS>SUBSTRUCTURE
     1 6L3         1 TEMP              0 ****  ****    0 ROOT
