@<TRIPOS>MOLECULE
molecule
   41    43     1     0     0
SMALL
bcc


@<TRIPOS>ATOM
      1 C10          0.0000     0.0000     0.0000 c3         1 6L4       0.070600
      2 C17          9.9070    -1.0370     0.2600 ca         1 6L4      -0.100000
      3 C20         10.2730     1.4560    -0.8950 ca         1 6L4      -0.138000
      4 C21          9.8570     1.3620     0.4250 ca         1 6L4       0.066600
      5 C24          8.9520     4.8660     1.3320 ce         1 6L4      -0.254200
      6 C02          7.4580     0.0020     3.8580 ca         1 6L4      -0.307200
      7 C03          6.0890     0.0010     4.0640 ca         1 6L4       0.529200
      8 N04          5.2770     0.0000     3.0180 nb         1 6L4      -0.813000
      9 C05          5.7580     0.0000     1.7840 ca         1 6L4       0.978900
     10 C07          3.4870     0.0000     0.9490 cd         1 6L4      -0.063700
     11 C08          2.5170     0.0000     0.0000 cc         1 6L4      -0.157300
     12 N09          1.3190    -0.0000     0.6390 na         1 6L4       0.060400
     13 N11          1.5660    -0.0010     2.0180 nc         1 6L4      -0.508800
     14 C12          2.8620    -0.0060     2.2040 cd         1 6L4       0.334200
     15 N13          7.0610     0.0020     1.5450 nb         1 6L4      -0.845000
     16 C14          7.9330     0.0080     2.5470 ca         1 6L4       0.732600
     17 O15          9.2650     0.0080     2.2980 os         1 6L4      -0.340400
     18 C16          9.6730     0.1080     1.0040 ca         1 6L4       0.059100
     19 C18         10.3270    -0.9350    -1.0520 ca         1 6L4      -0.145000
     20 C19         10.5100     0.3100    -1.6290 ca         1 6L4      -0.105000
     21 C23          9.2750     3.6660     0.5450 c          1 6L4       0.667300
     22 C25          8.6160     5.9950     0.7150 c2         1 6L4      -0.123000
     23 O26          9.2360     3.7070    -0.6700 o          1 6L4      -0.605100
     24 H1          -0.7700     0.0100     0.7620 h1         1 6L4       0.053700
     25 H2          -0.0980     0.8790    -0.6250 h1         1 6L4       0.053700
     26 H3          -0.1060    -0.8890    -0.6090 h1         1 6L4       0.053700
     27 H4           9.7650    -2.0130     0.7090 ha         1 6L4       0.144000
     28 H5          10.4170     2.4290    -1.3490 ha         1 6L4       0.184000
     29 H6           8.9870     4.8300     2.4140 ha         1 6L4       0.130000
     30 H8           5.6870     0.0010     5.0700 h4         1 6L4       0.045100
     31 H9           5.2260     0.0060    -0.2220 hn         1 6L4       0.470800
     32 H10          2.6700    -0.1090    -1.0670 h4         1 6L4       0.169000
     33 H11          3.3640    -0.0070     3.1640 h4         1 6L4       0.095100
     34 H12         10.5120    -1.8310    -1.6320 ha         1 6L4       0.134000
     35 H13         10.8370     0.3860    -2.6590 ha         1 6L4       0.136000
     36 H14          9.7500     2.5160     2.1630 hn         1 6L4       0.336500
     37 H15          8.3770     6.8790     1.2940 ha         1 6L4       0.131500
     38 H16          8.5800     6.0310    -0.3670 ha         1 6L4       0.131500
     39 N06          4.8760     0.0000     0.7160 nu         1 6L4      -0.715300
     40 N22          9.6160     2.5220     1.1710 ns         1 6L4      -0.465100
     41 Cl01         8.5580     0.0040     5.2010 cl         1 6L4      -0.084400
@<TRIPOS>BOND
     1    23    21 2   
     2     1    12 1   
     3     5    21 1   
     4     5    22 2   
     5    21    40 1   
     6     3    20 ar  
     7     3     4 ar  
     8    20    19 ar  
     9    12    13 1   
    10    12    11 1   
    11    13    14 2   
    12    11    10 2   
    13    40     4 1   
    14     4    18 ar  
    15    19     2 ar  
    16    14    10 1   
    17    10    39 1   
    18    39     9 1   
    19    18     2 ar  
    20    18    17 1   
    21    15     9 ar  
    22    15    16 ar  
    23     9     8 ar  
    24    17    16 1   
    25    16     6 ar  
    26     8     7 ar  
    27     6     7 ar  
    28     6    41 1   
    29     1    24 1   
    30     1    25 1   
    31     1    26 1   
    32     2    27 1   
    33     3    28 1   
    34     5    29 1   
    35     7    30 1   
    36    39    31 1   
    37    11    32 1   
    38    14    33 1   
    39    19    34 1   
    40    20    35 1   
    41    40    36 1   
    42    22    37 1   
    43    22    38 1   
@<TRIPOS>SUBSTRUCTURE
     1 6L4         1 TEMP              0 ****  ****    0 ROOT
