@<TRIPOS>MOLECULE
molecule
   64    66     1     0     0
SMALL
bcc


@<TRIPOS>ATOM
      1 N1           0.0000     0.0000     0.0000 nb         1 6L5      -0.780000
      2 C2           1.2520     0.0020    -2.4090 ca         1 6L5       0.677200
      3 N3           2.2970     0.0000     0.9720 na         1 6L5      -0.244000
      4 C4           3.5070     0.0000     0.3440 cc         1 6L5       0.468700
      5 C5           2.0720    -0.0010     2.4190 c3         1 6L5       0.329800
      6 C6           1.9430    -1.4480     2.9440 c3         1 6L5      -0.222900
      7 C8           3.1200     0.0490     4.4630 c3         1 6L5       0.034100
      8 C11          5.7470    -0.7010     8.5390 c3         1 6L5      -0.116400
      9 C12          7.1110    -0.6460     9.2300 c3         1 6L5      -0.051400
     10 C14          8.3340    -1.0690    11.3670 c3         1 6L5      -0.153400
     11 C15          8.1960    -1.5400    12.7920 c          1 6L5       0.676100
     12 C16          9.1400    -2.0350    14.9830 c3         1 6L5       0.122700
     13 C17         10.2590    -1.4290    15.8310 c3         1 6L5      -0.305400
     14 C18         10.0910     0.0680    15.8880 c          1 6L5       0.908600
     15 C7           2.6480    -1.4150     4.3180 c3         1 6L5       0.110100
     16 N2           1.8700     0.0030    -3.6480 nv         1 6L5      -0.845500
     17 C9           4.4630     0.1020     5.1430 c          1 6L5       0.678100
     18 C10          5.8880    -0.2230     7.0930 c3         1 6L5       0.087000
     19 C13          6.9700    -1.1240    10.6760 c3         1 6L5      -0.065400
     20 N4           3.3380     0.0010    -0.9460 nd         1 6L5      -0.584100
     21 O13          7.1120    -1.8850    13.2130 o          1 6L5      -0.630100
     22 N5           4.5820    -0.2750     6.4310 ns         1 6L5      -0.587900
     23 O1           5.4370     0.4850     4.5310 o          1 6L5      -0.567100
     24 O            3.2210     0.5390     3.1080 os         1 6L5      -0.350600
     25 O14          1.7300    -1.7500     5.3600 oh         1 6L5      -0.600800
     26 O15          0.5680    -1.8060     3.0940 oh         1 6L5      -0.556800
     27 C1           2.0130     0.0020    -1.2270 ca         1 6L5      -0.198200
     28 C            1.3290     0.0000     0.0000 ca         1 6L5       0.465800
     29 C3          -0.6710     0.0010    -1.1330 ca         1 6L5       0.726900
     30 N           -0.0720     0.0020    -2.3110 nb         1 6L5      -0.809000
     31 N6           9.2750    -1.5780    13.5970 ns         1 6L5      -0.530900
     32 C52          9.2340    -3.5390    15.0260 c          1 6L5       0.444100
     33 N21          9.1370    -4.1860    16.2040 nz         1 6L5      -0.684400
     34 O12          9.3990    -4.1670    14.0010 o          1 6L5      -0.429100
     35 O11         10.9640     0.8150    16.5820 o          1 6L5      -0.787800
     36 H1           4.4680    -0.0000     0.8450 h5         1 6L5       0.101800
     37 H2           1.1850     0.5680     2.6690 h2         1 6L5       0.066700
     38 H3           1.2970    -0.5850     3.0530 h1         1 6L5       0.243700
     39 H4           2.2650     0.5370     4.9150 h1         1 6L5       0.085700
     40 H5           4.8790    -0.0530     8.5130 hc         1 6L5       0.056700
     41 H6           5.4080    -1.7290     8.5370 hc         1 6L5       0.056700
     42 H7           7.8080    -1.2870     8.7040 hc         1 6L5       0.049200
     43 H8           7.4800     0.3720     9.2200 hc         1 6L5       0.049200
     44 H9           9.0310    -1.7110    10.8410 hc         1 6L5       0.070700
     45 H10          8.7030    -0.0510    11.3570 hc         1 6L5       0.070700
     46 H11          8.1790    -1.7220    15.3740 h1         1 6L5       0.107700
     47 H12          9.2290    -1.3640    16.1600 hc         1 6L5       0.057200
     48 H13         10.7310    -1.9690    16.6430 hc         1 6L5       0.057200
     49 H15          3.4970    -2.0870     4.3220 h1         1 6L5       0.078700
     50 H16          2.3860    -0.5280    -2.9740 hn         1 6L5       0.407300
     51 H17          1.4370    -0.4580    -4.4230 hn         1 6L5       0.407300
     52 H18          6.5860    -0.8640     6.5670 h1         1 6L5       0.054700
     53 H19          6.2570     0.7960     7.0830 h1         1 6L5       0.054700
     54 H20          6.2730    -0.4830    11.2010 hc         1 6L5       0.059700
     55 H21          6.6010    -2.1430    10.6850 hc         1 6L5       0.059700
     56 H22          3.7730    -0.5650     6.9440 hn         1 6L5       0.320500
     57 H23          1.8360    -2.6580     5.5930 ho         1 6L5       0.420000
     58 H24          0.4310    -2.6770     2.7610 ho         1 6L5       0.411000
     59 H25         -1.7530     0.0010    -1.0980 h5         1 6L5       0.063100
     60 H26         10.1740    -1.3210    13.2410 hn         1 6L5       0.350500
     61 H27          8.5740    -3.6500    16.8340 hn         1 6L5       0.466800
     62 H28          8.7140    -5.0820    16.0590 hn         1 6L5       0.466800
     63 O2           9.1710     0.5950    15.3090 o          1 6L5      -0.787800
     64 H213        10.0510    -4.3090    16.5940 hn         1 6L5       0.466800
@<TRIPOS>BOND
     1    29     1 ar
     2    29    30 ar
     3     1    28 ar
     4    26     6 1
     5    30     2 ar
     6     6     5 1
     7     6    15 1
     8    28    27 ar
     9    28     3 1
    10     2    16 1
    11     2    27 ar
    12    25    15 1
    13     5     3 1
    14     5    24 1
    15    27    20 1
    16    15     7 1
    17     3     4 1
    18    24     7 1
    19     7    17 1
    20     4    20 2
    21    17    23 2
    22    17    22 1
    23    22    18 1
    24    18     8 1
    25     8     9 1
    26     9    19 1
    27    34    32 2
    28    19    10 1
    29    32    33 1
    30    32    12 1
    31    10    11 1
    32    31    11 1
    33    31    12 1
    34    11    21 2
    35    13    12 1
    36    13    14 1
    37    14    35 1
    38     4    36 1
    39     5    37 1
    40     6    38 1
    41     7    39 1
    42     8    40 1
    43     8    41 1
    44     9    42 1
    45     9    43 1
    46    10    44 1
    47    10    45 1
    48    12    46 1
    49    13    47 1
    50    13    48 1
    51    15    49 1
    52    16    50 1
    53    16    51 1
    54    18    52 1
    55    18    53 1
    56    19    54 1
    57    19    55 1
    58    22    56 1
    59    25    57 1
    60    26    58 1
    61    29    59 1
    62    31    60 1
    63    33    61 1
    64    33    62 1
    65    14    63 1
    66    64    33 1
@<TRIPOS>SUBSTRUCTURE
     1 6L5         1 TEMP              0 ****  ****    0 ROOT
