@<TRIPOS>MOLECULE
6L5
   64    67     1     0     0
SMALL
bcc


@<TRIPOS>ATOM
      1 N1           0.0000     0.0000     0.0000 n2         1 6L5      -0.139000
      2 C2           1.2520     0.0020    -2.4090 c2         1 6L5       0.056000
      3 N3           2.2970     0.0000     0.9720 na         1 6L5       0.286000
      4 C4           3.5070     0.0000     0.3440 c2         1 6L5      -0.163000
      5 C5           2.0720    -0.0010     2.4190 DU         1 6L5       0.184000
      6 C6           1.9430    -1.4480     2.9440 c3         1 6L5      -0.352000
      7 C8           3.1200     0.0490     4.4630 c3         1 6L5       0.014000
      8 C11          5.7470    -0.7010     8.5390 c3         1 6L5      -0.135000
      9 C12          7.1110    -0.6460     9.2300 c3         1 6L5      -0.067000
     10 C14          8.3340    -1.0690    11.3670 c3         1 6L5      -0.122000
     11 C15          8.1960    -1.5400    12.7920 c2         1 6L5       0.237000
     12 C16          9.1400    -2.0350    14.9830 c3         1 6L5       0.015000
     13 C17         10.2590    -1.4290    15.8310 c3         1 6L5      -0.321000
     14 C18         10.0910     0.0680    15.8880 c2         1 6L5       0.425000
     15 C7           2.6480    -1.4150     4.3180 c3         1 6L5       0.044000
     16 N2           1.8700     0.0030    -3.6480 nv         1 6L5       0.040000
     17 C9           4.4630     0.1020     5.1430 c2         1 6L5       0.228000
     18 C10          5.8880    -0.2230     7.0930 c3         1 6L5      -0.099000
     19 C13          6.9700    -1.1240    10.6760 c3         1 6L5      -0.095000
     20 N4           3.3380     0.0010    -0.9460 n2         1 6L5      -0.065000
     21 O13          7.1120    -1.8850    13.2130 o          1 6L5      -0.436000
     22 N5           4.5820    -0.2750     6.4310 ns         1 6L5      -0.009000
     23 O1           5.4370     0.4850     4.5310 o          1 6L5      -0.371000
     24 O            3.2210     0.5390     3.1080 os         1 6L5      -0.195000
     25 O14          1.7300    -1.7500     5.3600 oh         1 6L5      -0.310000
     26 O15          0.5680    -1.8060     3.0940 oh         1 6L5      -0.256000
     27 C1           2.0130     0.0020    -1.2270 c2         1 6L5      -0.232000
     28 C            1.3290     0.0000     0.0000 c2         1 6L5      -0.134000
     29 C3          -0.6710     0.0010    -1.1330 c2         1 6L5       0.015000
     30 N           -0.0720     0.0020    -2.3110 n2         1 6L5      -0.197000
     31 N6           9.2750    -1.5780    13.5970 ns         1 6L5       0.061000
     32 C52          9.2340    -3.5390    15.0260 c2         1 6L5      -0.011000
     33 N21          9.1370    -4.1860    16.2040 nz         1 6L5       0.800000
     34 O12          9.3990    -4.1670    14.0010 o          1 6L5      -0.194000
     35 O11         10.9640     0.8150    16.5820 o          1 6L5      -0.575500
     36 H1           4.4680    -0.0000     0.8450 h5         1 6L5       0.180000
     37 H2           1.1850     0.5680     2.6690 ha         1 6L5       0.062000
     38 H3           1.2970    -0.5850     3.0530 DU         1 6L5       0.236000
     39 H4           2.2650     0.5370     4.9150 h1         1 6L5       0.085000
     40 H5           4.8790    -0.0530     8.5130 hc         1 6L5       0.065500
     41 H6           5.4080    -1.7290     8.5370 hc         1 6L5       0.065500
     42 H7           7.8080    -1.2870     8.7040 hc         1 6L5       0.057000
     43 H8           7.4800     0.3720     9.2200 hc         1 6L5       0.057000
     44 H9           9.0310    -1.7110    10.8410 hc         1 6L5       0.076000
     45 H10          8.7030    -0.0510    11.3570 hc         1 6L5       0.076000
     46 H11          8.1790    -1.7220    15.3740 h1         1 6L5       0.126000
     47 H12          9.2290    -1.3640    16.1600 hc         1 6L5       0.078000
     48 H13         10.7310    -1.9690    16.6430 hc         1 6L5       0.078000
     49 H15          3.4970    -2.0870     4.3220 h1         1 6L5       0.079000
     50 H16          2.3860    -0.5280    -2.9740 hn         1 6L5       0.086500
     51 H17          1.4370    -0.4580    -4.4230 hn         1 6L5       0.086500
     52 H18          6.5860    -0.8640     6.5670 h1         1 6L5       0.068000
     53 H19          6.2570     0.7960     7.0830 h1         1 6L5       0.068000
     54 H20          6.2730    -0.4830    11.2010 hc         1 6L5       0.069000
     55 H21          6.6010    -2.1430    10.6850 hc         1 6L5       0.069000
     56 H22          3.7730    -0.5650     6.9440 hn         1 6L5       0.096000
     57 H23          1.8360    -2.6580     5.5930 ho         1 6L5       0.206000
     58 H24          0.4310    -2.6770     2.7610 ho         1 6L5       0.214000
     59 H25         -1.7530     0.0010    -1.0980 h5         1 6L5       0.134000
     60 H26         10.1740    -1.3210    13.2410 hn         1 6L5       0.117000
     61 H27          8.5740    -3.6500    16.8340 hn         1 6L5       0.036667
     62 H28          8.7140    -5.0820    16.0590 hn         1 6L5       0.036667
     63 O2           9.1710     0.5950    15.3090 o          1 6L5      -0.575500
     64 H213        10.0510    -4.3090    16.5940 hn         1 6L5       0.036667
@<TRIPOS>BOND
     1     1    28 1   
     2     1    29 1   
     3     2    16 1   
     4     2    27 1   
     5     2    30 1   
     6     3     4 1   
     7     3     5 1   
     8     3    28 1   
     9     4    20 1   
    10     4    36 1   
    11     5     6 1   
    12     5    24 1   
    13     5    37 1   
    14     5    38 1   
    15     6    15 1   
    16     6    26 1   
    17     6    38 1   
    18     7    15 1   
    19     7    17 1   
    20     7    24 1   
    21     7    39 1   
    22     8     9 1   
    23     8    18 1   
    24     8    40 1   
    25     8    41 1   
    26     9    19 1   
    27     9    42 1   
    28     9    43 1   
    29    10    11 1   
    30    10    19 1   
    31    10    44 1   
    32    10    45 1   
    33    11    21 1   
    34    11    31 1   
    35    12    13 1   
    36    12    31 1   
    37    12    32 1   
    38    12    46 1   
    39    13    14 1   
    40    13    47 1   
    41    13    48 1   
    42    14    35 1   
    43    14    63 1   
    44    15    25 1   
    45    15    49 1   
    46    16    50 1   
    47    16    51 1   
    48    17    22 1   
    49    17    23 1   
    50    18    22 1   
    51    18    52 1   
    52    18    53 1   
    53    19    54 1   
    54    19    55 1   
    55    20    27 1   
    56    22    56 1   
    57    25    57 1   
    58    26    58 1   
    59    27    28 1   
    60    29    30 1   
    61    29    59 1   
    62    31    60 1   
    63    32    33 1   
    64    32    34 1   
    65    33    61 1   
    66    33    62 1   
    67    33    64 1   
@<TRIPOS>SUBSTRUCTURE
     1 6L5         1 TEMP              0 ****  ****    0 ROOT
