@<TRIPOS>MOLECULE
molecule
   24    24     1     0     0
SMALL
bcc


@<TRIPOS>ATOM
      1 C3           0.0000     0.0000     0.0000 ce         1 6L6       0.219900
      2 C4           1.4760     0.0000     0.0000 ca         1 6L6      -0.092800
      3 C5           2.1770     0.0000     1.2080 ca         1 6L6      -0.109000
      4 C6           3.5560    -0.0070     1.2050 ca         1 6L6      -0.119000
      5 C7           4.2490    -0.0110     0.0080 ca         1 6L6      -0.134000
      6 C8           3.5600    -0.0120    -1.1990 ca         1 6L6       0.102100
      7 C10         -4.6570    -0.4840     2.0220 c3         1 6L6      -0.018000
      8 O1          -0.6760    -0.0050    -1.1720 oh         1 6L6      -0.479100
      9 C1          -2.0520    -0.3300     1.1990 cs         1 6L6       0.312200
     10 C2          -0.6800     0.0000     1.1760 cf         1 6L6      -0.238200
     11 C9           2.1760    -0.0060    -1.2080 ca         1 6L6      -0.119000
     12 S1          -2.7280    -1.2660    -0.0650 s          1 6L6      -0.455400
     13 S2          -3.0680     0.2210     2.5280 ss         1 6L6      -0.163700
     14 O8           4.2470    -0.0160    -2.3720 oh         1 6L6      -0.517100
     15 H1           1.6370     0.0040     2.1480 ha         1 6L6       0.138000
     16 H2           4.0990    -0.0070     2.1420 ha         1 6L6       0.139000
     17 H3           5.3320    -0.0160     0.0110 ha         1 6L6       0.144000
     18 H4          -5.4120    -0.2390     2.7590 h1         1 6L6       0.080367
     19 H5          -4.5660    -1.5610     1.9420 h1         1 6L6       0.080367
     20 H6          -4.9450    -0.0740     1.0610 h1         1 6L6       0.080367
     21 H7          -0.1280     0.0040     2.1080 ha         1 6L6       0.154000
     22 H9           1.6390    -0.0060    -2.1480 ha         1 6L6       0.155000
     23 H10          4.4090     0.8710    -2.6450 ho         1 6L6       0.420000
     24 H11         -0.7620     0.8790    -1.4890 ho         1 6L6       0.420000
@<TRIPOS>BOND
     1     4     5 ar
     2     4     3 ar
     3     5     6 ar
     4     3     2 ar
     5     6    14 1
     6     6    11 ar
     7     2    11 ar
     8     2     1 1
     9    10     1 2
    10    10     9 1
    11     1     8 1
    12    13     9 1
    13    13     7 1
    14     9    12 2
    15     3    15 1
    16     4    16 1
    17     5    17 1
    18     7    18 1
    19     7    19 1
    20     7    20 1
    21    10    21 1
    22    11    22 1
    23    14    23 1
    24     8    24 1
@<TRIPOS>SUBSTRUCTURE
     1 6L6         1 TEMP              0 ****  ****    0 ROOT
