@<TRIPOS>MOLECULE
molecule
   57    59     1     0     0
SMALL
bcc


@<TRIPOS>ATOM
      1 C1           0.0000     0.0000     0.0000 ca         1 6L7       0.490800
      2 C2           1.4050     0.0000     0.0000 ca         1 6L7      -0.210200
      3 C3           2.0690     0.0000     1.2380 ca         1 6L7       0.804200
      4 C4           0.0180     0.0010     2.2980 ca         1 6L7       0.769900
      5 C5           0.7590    -0.0010    -2.0710 cc         1 6L7       0.372700
      6 C6          -1.7530     0.0050    -1.8270 c3         1 6L7       0.282800
      7 C7          -2.3010     1.4520    -1.9000 c3         1 6L7       0.102100
      8 N1           1.8040     0.0000    -1.2950 nd         1 6L7      -0.532100
      9 N2          -0.3780    -0.0010    -1.3190 na         1 6L7      -0.276000
     10 N3           1.3370     0.0010     2.3480 nb         1 6L7      -0.797000
     11 C8          -3.3960     1.3300    -2.9870 c3         1 6L7       0.093100
     12 N4          -0.6450     0.0040     1.1610 nb         1 6L7      -0.795000
     13 N5           3.4510     0.0000     1.3010 nv         1 6L7      -0.985500
     14 C9          -3.0110     0.0590    -3.7700 c3         1 6L7       0.099100
     15 C10         -2.7980     0.4030    -5.2450 c3         1 6L7       0.086800
     16 O1          -1.7880    -0.4380    -3.2000 os         1 6L7      -0.460600
     17 O2          -4.6830     1.1740    -2.3850 oh         1 6L7      -0.555800
     18 O3          -2.8670     1.8470    -0.6480 oh         1 6L7      -0.528800
     19 N6          -2.4330    -0.8130    -5.9840 nx         1 6L7      -0.643400
     20 C11         -2.0910    -0.4610    -7.3690 c3         1 6L7       0.069800
     21 C12         -0.8220     0.3940    -7.3790 c3         1 6L7       0.076800
     22 N7          -0.4090     0.6400    -8.7670 nz         1 6L7      -0.803600
     23 C13         -3.5680    -1.7450    -5.9830 c3         1 6L7       0.070800
     24 C14         -3.1500    -3.0600    -6.6420 c3         1 6L7      -0.119400
     25 C15         -4.3320    -4.0310    -6.6410 c3         1 6L7      -0.006500
     26 C16         -3.9580    -5.2790    -7.3990 c          1 6L7       0.853600
     27 O4          -3.9980    -5.2870    -8.7400 o          1 6L7      -0.722300
     28 O5          -3.6230    -6.2730    -6.7980 o          1 6L7      -0.722300
     29 N8          -4.6740    -4.3840    -5.2570 nz         1 6L7      -0.809600
     30 HC4         -0.5390     0.0020     3.2270 h5         1 6L7       0.082100
     31 HC5          0.7890    -0.0020    -3.1540 h5         1 6L7       0.046800
     32 HC6         -2.3950    -0.6140    -1.2120 h2         1 6L7       0.131700
     33 HC7         -1.5250     2.1400    -2.2140 h1         1 6L7       0.068700
     34 HC8         -3.3780     2.1950    -3.6390 h1         1 6L7       0.047700
     35 HN5A         3.9830    -0.5140     0.6270 hn         1 6L7       0.460800
     36 HN5B         3.9170     0.4720     2.0510 hn         1 6L7       0.460800
     37 HC9         -3.7920    -0.6850    -3.6690 h1         1 6L7       0.086700
     38 H10B        -3.7130     0.8140    -5.6550 hx         1 6L7       0.107700
     39 H10A        -2.0020     1.1330    -5.3350 hx         1 6L7       0.107700
     40 HO2         -5.2190     1.9230    -2.5890 ho         1 6L7       0.433000
     41 HO3         -2.8060     2.7840    -0.5570 ho         1 6L7       0.428000
     42 HN6         -1.6450    -1.2460    -5.5460 hn         1 6L7       0.475800
     43 H11B        -1.9210    -1.3650    -7.9410 hx         1 6L7       0.130700
     44 H11A        -2.9070     0.0990    -7.8120 hx         1 6L7       0.130700
     45 H12B        -1.0200     1.3400    -6.8880 hx         1 6L7       0.131200
     46 H12A        -0.0310    -0.1270    -6.8530 hx         1 6L7       0.131200
     47 HN7C        -0.1560    -0.2270    -9.1980 hn         1 6L7       0.481800
     48 HN7B        -1.1660     1.0560    -9.2720 hn         1 6L7       0.481800
     49 HN7A         0.3780     1.2590    -8.7760 hn         1 6L7       0.481800
     50 H13B        -3.8780    -1.9360    -4.9620 hx         1 6L7       0.110200
     51 H13A        -4.3930    -1.3110    -6.5350 hx         1 6L7       0.110200
     52 H14A        -2.3250    -3.4950    -6.0900 hc         1 6L7       0.097700
     53 H14B        -2.8400    -2.8700    -7.6630 hc         1 6L7       0.097700
     54 HC15        -5.1850    -3.5620    -7.1160 hx         1 6L7       0.115700
     55 HN8B        -4.1690    -3.7930    -4.6270 hn         1 6L7       0.452467
     56 HN8C        -4.4310    -5.3400    -5.0860 hn         1 6L7       0.452467
     57 HN8A        -5.6570    -4.2600    -5.1140 hn         1 6L7       0.452467
@<TRIPOS>BOND
     1    13     3 1
     2     3     2 ar
     3     3    10 ar
     4     8     2 1
     5     8     5 2
     6     2     1 ar
     7    10     4 ar
     8     5     9 1
     9     4    12 ar
    10     1     9 1
    11     1    12 ar
    12     9     6 1
    13     6     7 1
    14     6    16 1
    15     7    18 1
    16     7    11 1
    17    22    21 1
    18    16    14 1
    19    15    14 1
    20    15    19 1
    21    21    20 1
    22    11    14 1
    23    11    17 1
    24    20    19 1
    25    19    23 1
    26    23    24 1
    27    24    25 1
    28    29    25 1
    29    25    26 1
    30    28    26 1
    31    26    27 1
    32     4    30 1
    33     5    31 1
    34     6    32 1
    35     7    33 1
    36    11    34 1
    37    13    35 1
    38    13    36 1
    39    14    37 1
    40    15    38 1
    41    15    39 1
    42    17    40 1
    43    18    41 1
    44    19    42 1
    45    20    43 1
    46    20    44 1
    47    21    45 1
    48    21    46 1
    49    22    47 1
    50    22    48 1
    51    22    49 1
    52    23    50 1
    53    23    51 1
    54    24    52 1
    55    24    53 1
    56    25    54 1
    57    29    55 1
    58    29    56 1
    59    29    57 1
@<TRIPOS>SUBSTRUCTURE
     1 6L7         1 TEMP              0 ****  ****    0 ROOT
