@<TRIPOS>MOLECULE
6L8
   43    45     1     0     0
SMALL
bcc


@<TRIPOS>ATOM
      1 C9           0.0000     0.0000     0.0000 ca         1 6L8       0.033000
      2 C10          1.3830     0.0000     0.0000 ca         1 6L8      -0.220800
      3 C11          2.0760     0.0000     1.1950 ca         1 6L8       0.025000
      4 C6           1.3790     0.0010     2.4010 ca         1 6L8      -0.161500
      5 C7          -0.0140     0.0020     2.3940 ca         1 6L8       0.025000
      6 C8          -0.6970     0.0010     1.1940 ca         1 6L8      -0.220800
      7 C12         -2.2030     0.0020     1.1860 c3         1 6L8       0.645200
      8 C13          2.1360    -0.0010    -1.3060 c3         1 6L8       0.645200
      9 F2           1.2260    -0.0020    -2.3680 f          1 6L8      -0.201467
     10 F1           2.9410     1.1400    -1.3810 f          1 6L8      -0.201467
     11 F3           2.9400    -1.1440    -1.3790 f          1 6L8      -0.201467
     12 F6          -2.6630     0.0020    -0.1360 f          1 6L8      -0.201467
     13 F5          -2.6750    -1.1390     1.8420 f          1 6L8      -0.201467
     14 F4          -2.6740     1.1450     1.8420 f          1 6L8      -0.201467
     15 C5           2.1180     0.0010     3.6880 cc         1 6L8       0.671500
     16 N3           3.4500    -0.0000     3.8230 nc         1 6L8      -0.660000
     17 C4           3.7660    -0.0010     5.0910 cd         1 6L8       0.344400
     18 N2           2.6280    -0.0000     5.8100 na         1 6L8       0.279600
     19 N4           1.5720     0.0070     4.8840 nd         1 6L8      -0.708800
     20 C3           2.5150    -0.0010     7.2700 c3         1 6L8       0.030300
     21 C2           1.6500     1.1820     7.7140 c3         1 6L8      -0.047400
     22 C1'          1.4320     1.1120     9.2040 ca         1 6L8      -0.457900
     23 C4'          0.1530     1.0120     9.7290 ca         1 6L8       0.464200
     24 N2'         -0.0000     0.9530    11.0430 nb         1 6L8      -0.590000
     25 C3'          1.0430     0.9880    11.8470 ca         1 6L8       0.680900
     26 N1'          2.2730     1.0820    11.3830 nb         1 6L8      -0.590000
     27 C2'          2.5050     1.1400    10.0810 ca         1 6L8       0.464200
     28 C1           2.3490     2.4710     7.3700 c          1 6L8       0.324100
     29 O1           3.4310     2.4480     6.8220 o          1 6L8      -0.402100
     30 N1           1.7710     3.6520     7.6690 nz         1 6L8       0.202600
     31 H1          -0.5400    -0.0000    -0.9390 ha         1 6L8       0.146000
     32 H2           3.1590    -0.0000     1.1940 ha         1 6L8       0.132500
     33 H3          -0.5620     0.0020     3.3290 ha         1 6L8       0.132500
     34 H4           4.7720    -0.0030     5.4940 h5         1 6L8       0.036100
     35 H5           3.5010     0.0880     7.7090 h1         1 6L8       0.060700
     36 H6           2.0560    -0.9260     7.5960 h1         1 6L8       0.060700
     37 H7           0.6940     1.1410     7.2070 hc         1 6L8       0.094700
     38 H8          -0.7090     0.9830     9.0740 h4         1 6L8      -0.004900
     39 H9           0.8850     0.9400    12.9170 h5         1 6L8       0.026100
     40 H10          3.5180     1.2170     9.7070 h4         1 6L8      -0.004900
     41 H11          2.1180     4.3600     7.0530 hn         1 6L8       0.251133
     42 H12          0.7790     3.5740     7.5620 hn         1 6L8       0.251133
     43 H13          1.9860     3.8980     8.6150 hn         1 6L8       0.251133
@<TRIPOS>BOND
     1     1     2 ar  
     2     1     6 ar  
     3     1    31 1   
     4     2     3 ar  
     5     2     8 1   
     6     3     4 ar  
     7     3    32 1   
     8     4     5 ar  
     9     4    15 1   
    10     5     6 ar  
    11     5    33 1   
    12     6     7 1   
    13     7    12 1   
    14     7    13 1   
    15     7    14 1   
    16     8     9 1   
    17     8    10 1   
    18     8    11 1   
    19    15    16 1   
    20    15    19 2   
    21    16    17 2   
    22    17    18 1   
    23    17    34 1   
    24    18    19 1   
    25    18    20 1   
    26    20    21 1   
    27    20    35 1   
    28    20    36 1   
    29    21    22 1   
    30    21    28 1   
    31    21    37 1   
    32    22    23 ar  
    33    22    27 ar  
    34    23    24 ar  
    35    23    38 1   
    36    24    25 ar  
    37    25    26 ar  
    38    25    39 1   
    39    26    27 ar  
    40    27    40 1   
    41    28    29 2   
    42    28    30 1   
    43    30    41 1   
    44    30    42 1   
    45    30    43 1   
@<TRIPOS>SUBSTRUCTURE
     1 6L8         1 TEMP              0 ****  ****    0 ROOT
