@<TRIPOS>MOLECULE
molecule
   21    21     1     0     0
SMALL
bcc


@<TRIPOS>ATOM
      1 C8           0.0000     0.0000     0.0000 c3         1 6LB      -0.094100
      2 C7           1.5300     0.0000     0.0000 c3         1 6LB       0.159800
      3 N4           2.0200     0.0000     1.3860 n3         1 6LB      -0.729600
      4 C3           1.6760    -1.2570     2.0660 c3         1 6LB       0.122800
      5 C2           2.1510    -1.1910     3.5190 c3         1 6LB       0.139400
      6 C5           3.4700     0.2380     1.4320 c3         1 6LB       0.122800
      7 C6           3.9270     0.2900     2.8920 c3         1 6LB       0.139400
      8 O1           3.5560    -0.9270     3.5450 os         1 6LB      -0.425600
      9 H1          -0.3610     0.5900     0.8340 hc         1 6LB       0.039367
     10 H2          -0.3610     0.4270    -0.9280 hc         1 6LB       0.039367
     11 H3          -0.3610    -1.0170     0.0940 hc         1 6LB       0.039367
     12 H4           1.8910    -0.8840    -0.5110 h1         1 6LB       0.033700
     13 H5           1.8910     0.8850    -0.5110 h1         1 6LB       0.033700
     14 H7           0.6020    -1.3970     2.0430 h1         1 6LB       0.042450
     15 H8           2.1650    -2.0840     1.5650 h1         1 6LB       0.042450
     16 H9           1.9530    -2.1380     4.0070 h1         1 6LB       0.052450
     17 H10          1.6250    -0.3960     4.0340 h1         1 6LB       0.052450
     18 H11          3.9840    -0.5670     0.9210 h1         1 6LB       0.042450
     19 H12          3.6950     1.1820     0.9500 h1         1 6LB       0.042450
     20 H13          3.4500     1.1260     3.3900 h1         1 6LB       0.052450
     21 H14          5.0030     0.4070     2.9290 h1         1 6LB       0.052450
@<TRIPOS>BOND
     1     5     8 1   
     2     5     4 1   
     3     8     7 1   
     4     4     3 1   
     5     7     6 1   
     6     3     6 1   
     7     3     2 1   
     8     1     2 1   
     9     1     9 1   
    10     1    10 1   
    11     1    11 1   
    12     2    12 1   
    13     2    13 1   
    14     4    14 1   
    15     4    15 1   
    16     5    16 1   
    17     5    17 1   
    18     6    18 1   
    19     6    19 1   
    20     7    20 1   
    21     7    21 1   
@<TRIPOS>SUBSTRUCTURE
     1 6LB         1 TEMP              0 ****  ****    0 ROOT
