@<TRIPOS>MOLECULE
6LB
   21    21     1     0     0
SMALL
bcc


@<TRIPOS>ATOM
      1 C8           0.0000     0.0000     0.0000 c3         1 6LB      -0.002100
      2 C7           1.5300     0.0000     0.0000 c3         1 6LB       0.154800
      3 N4           2.0200     0.0000     1.3860 n3         1 6LB      -0.540600
      4 C3           1.6760    -1.2570     2.0660 c3         1 6LB       0.109800
      5 C2           2.1510    -1.1910     3.5190 c3         1 6LB       0.214400
      6 C5           3.4700     0.2380     1.4320 c3         1 6LB       0.109800
      7 C6           3.9270     0.2900     2.8920 c3         1 6LB       0.214400
      8 O1           3.5560    -0.9270     3.5450 os         1 6LB      -0.412600
      9 H1          -0.3610     0.5900     0.8340 hc         1 6LB       0.007367
     10 H2          -0.3610     0.4270    -0.9280 hc         1 6LB       0.007367
     11 H3          -0.3610    -1.0170     0.0940 hc         1 6LB       0.007367
     12 H4           1.8910    -0.8840    -0.5110 h1         1 6LB       0.007200
     13 H5           1.8910     0.8850    -0.5110 h1         1 6LB       0.007200
     14 H7           0.6020    -1.3970     2.0430 h1         1 6LB       0.017450
     15 H8           2.1650    -2.0840     1.5650 h1         1 6LB       0.017450
     16 H9           1.9530    -2.1380     4.0070 h1         1 6LB       0.011950
     17 H10          1.6250    -0.3960     4.0340 h1         1 6LB       0.011950
     18 H11          3.9840    -0.5670     0.9210 h1         1 6LB       0.017450
     19 H12          3.6950     1.1820     0.9500 h1         1 6LB       0.017450
     20 H13          3.4500     1.1260     3.3900 h1         1 6LB       0.011950
     21 H14          5.0030     0.4070     2.9290 h1         1 6LB       0.011950
@<TRIPOS>BOND
     1     1     2 1   
     2     1     9 1   
     3     1    10 1   
     4     1    11 1   
     5     2     3 1   
     6     2    12 1   
     7     2    13 1   
     8     3     4 1   
     9     3     6 1   
    10     4     5 1   
    11     4    14 1   
    12     4    15 1   
    13     5     8 1   
    14     5    16 1   
    15     5    17 1   
    16     6     7 1   
    17     6    18 1   
    18     6    19 1   
    19     7     8 1   
    20     7    20 1   
    21     7    21 1   
@<TRIPOS>SUBSTRUCTURE
     1 6LB         1 TEMP              0 ****  ****    0 ROOT
