@<TRIPOS>MOLECULE
molecule
   43    45     1     0     0
SMALL
bcc


@<TRIPOS>ATOM
      1 C6'          0.0000     0.0000     0.0000 c2         1 6LC      -0.219200
      2 C5'          1.3100     0.0000     0.0000 c2         1 6LC      -0.115200
      3 C4'          2.0630     0.0000     1.3050 c3         1 6LC       0.149300
      4 O4'          1.1570    -0.2260     2.4080 os         1 6LC      -0.426600
      5 C3'          3.0510    -1.1870     1.3560 c3         1 6LC       0.078100
      6 O3'          4.3690    -0.7550     1.0130 oh         1 6LC      -0.585800
      7 C2'          3.0010    -1.6530     2.8280 c3         1 6LC       0.101100
      8 O2'          4.2870    -1.5260     3.4380 oh         1 6LC      -0.554800
      9 C1'          1.9890    -0.6940     3.4920 c3         1 6LC       0.231800
     10 N9           1.1800    -1.4110     4.4820 na         1 6LC      -0.255000
     11 C8          -0.0200    -2.0170     4.2570 cc         1 6LC       0.406700
     12 N7          -0.4590    -2.5570     5.3560 nd         1 6LC      -0.577100
     13 C5           0.4300    -2.3330     6.3540 ca         1 6LC      -0.218200
     14 C6           0.4930    -2.6730     7.7170 ca         1 6LC       0.795200
     15 N6          -0.5270    -3.3940     8.3140 nv         1 6LC      -0.978500
     16 N1           1.5520    -2.2850     8.4180 nb         1 6LC      -0.827000
     17 C2           2.5290    -1.5960     7.8560 ca         1 6LC       0.757900
     18 N3           2.5140    -1.2560     6.5840 nb         1 6LC      -0.793000
     19 C4           1.4950    -1.6010     5.8040 ca         1 6LC       0.490800
     20 C7'         -0.7540    -0.0000    -1.3050 c3         1 6LC       0.285000
     21 N8'         -1.6840    -1.1310    -1.3330 nu         1 6LC      -0.851200
     22 C9'         -2.4850    -1.3370    -2.4310 c2         1 6LC       0.688100
     23 N10         -2.4150    -0.5260    -3.4480 n2         1 6LC      -0.782100
     24 N11         -3.3580    -2.3990    -2.4560 nz         1 6LC      -0.808600
     25 H1          -0.5420     0.0000     0.9380 ha         1 6LC       0.161000
     26 H2           1.8520    -0.0000    -0.9380 ha         1 6LC       0.145000
     27 H3           2.5930     0.9350     1.4410 h1         1 6LC       0.097700
     28 H4           2.7210    -1.9810     0.6970 h1         1 6LC       0.053700
     29 H5           4.7000    -1.2860     0.3070 ho         1 6LC       0.423000
     30 H6           2.6460    -2.6750     2.8880 h1         1 6LC       0.104700
     31 H7           4.6350    -0.6670     3.2620 ho         1 6LC       0.423000
     32 H8           2.5080     0.1380     3.9530 h2         1 6LC       0.104700
     33 H9          -0.5330    -2.0440     3.3030 h5         1 6LC       0.065800
     34 H10         -1.3430    -3.6360     7.7880 hn         1 6LC       0.452800
     35 H11         -0.4520    -3.6660     9.2740 hn         1 6LC       0.452800
     36 H12          3.3740    -1.3000     8.4650 h5         1 6LC       0.070100
     37 H13         -0.0530    -0.0890    -2.1270 h1         1 6LC       0.078200
     38 H14         -1.3080     0.9250    -1.4020 h1         1 6LC       0.078200
     39 H15         -1.7420    -1.7510    -0.5490 hn         1 6LC       0.456800
     40 H16         -2.9970    -0.6750    -4.2490 hn         1 6LC       0.439400
     41 H17         -3.6840    -2.5410    -3.3920 hn         1 6LC       0.467467
     42 H18         -2.8900    -3.2240    -2.1370 hn         1 6LC       0.467467
     43 H113        -4.1370    -2.2050    -1.8580 hn         1 6LC       0.467467
@<TRIPOS>BOND
     1    15    14 1   
     2    16    14 ar  
     3    16    17 ar  
     4    14    13 ar  
     5    17    18 ar  
     6    13    19 ar  
     7    13    12 1   
     8    18    19 ar  
     9    19    10 1   
    10    12    11 2   
    11    11    10 1   
    12    10     9 1   
    13     4     9 1   
    14     4     3 1   
    15     9     7 1   
    16     1    20 1   
    17     1     2 2   
    18    20    21 1   
    19    21    22 1   
    20     3     2 1   
    21     3     5 1   
    22     7     5 1   
    23     7     8 1   
    24    23    22 2   
    25    22    24 1   
    26     5     6 1   
    27     1    25 1   
    28     2    26 1   
    29     3    27 1   
    30     5    28 1   
    31     6    29 1   
    32     7    30 1   
    33     8    31 1   
    34     9    32 1   
    35    11    33 1   
    36    15    34 1   
    37    15    35 1   
    38    17    36 1   
    39    20    37 1   
    40    20    38 1   
    41    21    39 1   
    42    23    40 1   
    43    24    41 1   
    44    24    42 1   
    45    43    24 1   
@<TRIPOS>SUBSTRUCTURE
     1 6LC         1 TEMP              0 ****  ****    0 ROOT
