@<TRIPOS>MOLECULE
6LD
   51    52     1     0     0
SMALL
bcc


@<TRIPOS>ATOM
      1 C1           0.0000     0.0000     0.0000 cp         1 6LD      -0.067000
      2 C2          -0.7450     0.0050    -1.2840 cp         1 6LD       0.002000
      3 C3           1.3940     0.0000     0.0000 ca         1 6LD      -0.094000
      4 C11          1.3880     0.0010     2.3950 ca         1 6LD      -0.055300
      5 C12         -2.1340     0.0260    -3.6790 ca         1 6LD      -0.124000
      6 C13          2.1450     0.0030     3.6980 c3         1 6LD      -0.001100
      7 C14          2.4000     1.4440     4.1390 c3         1 6LD       0.011700
      8 C16          3.2740     1.4480     5.3950 c3         1 6LD      -0.035400
      9 C18          4.6630     0.9060     5.0510 c3         1 6LD      -0.155700
     10 C19         -0.3060     4.1130     4.5860 c3         1 6LD      -0.083400
     11 C21          5.4820     0.7890     6.3090 c          1 6LD       0.986600
     12 C22          5.3570     1.8620     4.0780 c3         1 6LD       0.011900
     13 C23         -0.1310     5.6310     4.5030 c3         1 6LD      -0.119400
     14 C26         -1.4680     6.3010     4.6920 c          1 6LD       0.981600
     15 C4          -0.6920    -0.0000     1.2100 ca         1 6LD      -0.094000
     16 C5          -2.1380     0.0160    -1.2840 ca         1 6LD      -0.106500
     17 C6          -0.0540     0.0040    -2.4930 ca         1 6LD      -0.106500
     18 C7           2.0810     0.0000     1.1970 ca         1 6LD      -0.098000
     19 C8           0.0060     0.0010     2.4000 ca         1 6LD      -0.098000
     20 C9          -2.8260     0.0270    -2.4810 ca         1 6LD      -0.102500
     21 C10         -0.7510     0.0090    -3.6840 ca         1 6LD      -0.102500
     22 N15          1.1230     2.1000     4.4310 ns         1 6LD      -0.220900
     23 O20          2.0250     4.1150     4.2140 o          1 6LD      -0.653100
     24 O24          6.7430     0.3320     6.2500 o          1 6LD      -0.906300
     25 O25          5.0050     1.1050     7.3730 o          1 6LD      -0.906300
     26 O27         -1.5600     7.6390     4.6580 o          1 6LD      -0.918300
     27 O28         -2.4590     5.6320     4.8740 o          1 6LD      -0.918300
     28 H1           1.9360    -0.0010    -0.9380 ha         1 6LD       0.103000
     29 H2          -2.6780     0.0320    -4.6160 ha         1 6LD       0.091000
     30 H3           1.5620    -0.5080     4.4540 hc         1 6LD       0.033200
     31 H4           3.0910    -0.5080     3.5660 hc         1 6LD       0.033200
     32 H5           2.9070     1.9800     3.3450 h1         1 6LD       0.060700
     33 H6           3.3640     2.4600     5.7690 hc         1 6LD       0.037700
     34 H7           2.8190     0.8210     6.1520 hc         1 6LD       0.037700
     35 H8           4.5670    -0.0700     4.5910 hc         1 6LD       0.009700
     36 H9          -0.9870     3.7850     3.8100 hc         1 6LD       0.028700
     37 H10         -0.7080     3.8480     5.5560 hc         1 6LD       0.028700
     38 H11          5.2900     2.8750     4.4570 hc         1 6LD      -0.003633
     39 H12          4.8740     1.8060     3.1100 hc         1 6LD      -0.003633
     40 H13          6.3990     1.5830     3.9780 hc         1 6LD      -0.003633
     41 H14          0.2710     5.8960     3.5330 hc         1 6LD       0.021700
     42 H15          0.5500     5.9600     5.2790 hc         1 6LD       0.021700
     43 H16         -1.7750    -0.0010     1.2150 ha         1 6LD       0.103000
     44 H17         -2.6810     0.0160    -0.3460 ha         1 6LD       0.115000
     45 H18          1.0300    -0.0090    -2.4990 ha         1 6LD       0.115000
     46 H19          3.1640    -0.0000     1.1980 ha         1 6LD       0.112000
     47 H20         -0.5310     0.0000     3.3410 ha         1 6LD       0.112000
     48 H21         -3.9100     0.0370    -2.4820 ha         1 6LD       0.094000
     49 H22         -0.2140     0.0090    -4.6250 ha         1 6LD       0.094000
     50 H23          0.3300     1.5520     4.6990 hn         1 6LD       0.164500
     51 C17          1.0320     3.4440     4.3970 c          1 6LD       0.568100
@<TRIPOS>BOND
     1     1     2 1   
     2     1     3 ar  
     3     1    15 ar  
     4     2    16 ar  
     5     2    17 ar  
     6     3    18 ar  
     7     3    28 1   
     8     4     6 1   
     9     4    18 ar  
    10     4    19 ar  
    11     5    20 ar  
    12     5    21 ar  
    13     5    29 1   
    14     6     7 1   
    15     6    30 1   
    16     6    31 1   
    17     7     8 1   
    18     7    22 1   
    19     7    32 1   
    20     8     9 1   
    21     8    33 1   
    22     8    34 1   
    23     9    11 1   
    24     9    12 1   
    25     9    35 1   
    26    10    13 1   
    27    10    36 1   
    28    10    37 1   
    29    10    51 1   
    30    11    24 1   
    31    11    25 1   
    32    12    38 1   
    33    12    39 1   
    34    12    40 1   
    35    13    14 1   
    36    13    41 1   
    37    13    42 1   
    38    14    26 1   
    39    14    27 1   
    40    15    19 ar  
    41    15    43 1   
    42    16    20 ar  
    43    16    44 1   
    44    17    21 ar  
    45    17    45 1   
    46    18    46 1   
    47    19    47 1   
    48    20    48 1   
    49    21    49 1   
    50    22    50 1   
    51    22    51 1   
    52    23    51 2   
@<TRIPOS>SUBSTRUCTURE
     1 6LD         1 TEMP              0 ****  ****    0 ROOT
