@<TRIPOS>MOLECULE
molecule
   22    22     1     0     0
SMALL
bcc


@<TRIPOS>ATOM
      1 C4           0.0000     0.0000     0.0000 ca         1 6LE      -0.114000
      2 C5           1.3840     0.0000     0.0000 ca         1 6LE       0.057400
      3 C6           2.0750     0.0000     1.1990 ca         1 6LE      -0.114000
      4 C7           1.3820     0.0010     2.3950 ca         1 6LE      -0.093000
      5 Cl           2.2530    -0.0010    -1.5030 cl         1 6LE      -0.059400
      6 C3          -0.6910     0.0020     1.1970 ca         1 6LE      -0.093000
      7 C2           0.0000     0.0010     2.3940 ca         1 6LE      -0.165300
      8 C1          -0.7540     0.0020     3.6990 c3         1 6LE       0.184400
      9 O           -0.0990     0.8680     4.6270 oh         1 6LE      -0.607800
     10 C           -0.7930    -1.4190     4.2660 c3         1 6LE       0.092800
     11 N           -1.6280    -1.4410     5.4740 nz         1 6LE      -0.810600
     12 H1          -0.5420     0.0000    -0.9380 ha         1 6LE       0.164500
     13 H2           3.1580     0.0000     1.2000 ha         1 6LE       0.164500
     14 H3           1.9230     0.0010     3.3330 ha         1 6LE       0.141500
     15 H4          -1.7740     0.0020     1.1970 ha         1 6LE       0.141500
     16 H5          -1.7650     0.3520     3.5310 h1         1 6LE       0.050700
     17 H6          -0.5590     1.6900     4.6690 ho         1 6LE       0.438000
     18 H7          -1.2110    -2.0910     3.5260 hx         1 6LE       0.124200
     19 H8           0.2120    -1.7360     4.5150 hx         1 6LE       0.124200
     20 H9          -2.4600    -0.9080     5.3150 hn         1 6LE       0.457800
     21 H10         -1.1190    -1.0430     6.2390 hn         1 6LE       0.457800
     22 HN3         -1.8740    -2.3860     5.6930 hn         1 6LE       0.457800
@<TRIPOS>BOND
     1     5     2 1   
     2     1     2 ar  
     3     1     6 ar  
     4     2     3 ar  
     5     6     7 ar  
     6     3     4 ar  
     7    11    10 1   
     8     7     4 ar  
     9     7     8 1   
    10     8    10 1   
    11     8     9 1   
    12     1    12 1   
    13     3    13 1   
    14     4    14 1   
    15     6    15 1   
    16     8    16 1   
    17     9    17 1   
    18    10    18 1   
    19    10    19 1   
    20    11    20 1   
    21    11    21 1   
    22    22    11 1   
@<TRIPOS>SUBSTRUCTURE
     1 6LE         1 TEMP              0 ****  ****    0 ROOT
