@<TRIPOS>MOLECULE
molecule
   49    52     1     0     0
SMALL
bcc


@<TRIPOS>ATOM
      1 CAJ          0.0000     0.0000     0.0000 ca         1 6LF      -0.200900
      2 CAK         -2.0810    -0.1010     3.5250 c3         1 6LF       0.181400
      3 CAL          1.4050     0.0000     0.0000 ca         1 6LF      -0.048200
      4 CAM          0.0110     0.0050     2.3990 ca         1 6LF       0.101100
      5 CAN         -0.4140    -0.0020    -1.4090 cc         1 6LF       0.422200
      6 CAO         -0.6930     0.0060     1.2120 ca         1 6LF      -0.157000
      7 CAP         -2.5930    -0.6740     4.8220 ca         1 6LF      -0.042300
      8 CAQ          2.0940     0.0000     1.2110 ca         1 6LF      -0.126000
      9 CAR          1.4040     0.0010     2.3890 ca         1 6LF      -0.104000
     10 CAS         -2.6920     1.2840     3.3030 c3         1 6LF      -0.115100
     11 CAT         -1.7980    -0.0020    -1.9100 cf         1 6LF      -0.212600
     12 CAU         -3.4210    -0.0030    -3.7340 cc         1 6LF      -0.295100
     13 CAV         -2.0340    -0.0030    -3.2320 ce         1 6LF      -0.034200
     14 CAX         -3.8120    -0.0040    -5.0560 cd         1 6LF      -0.090300
     15 CAY         -3.5490    -1.6790     4.8240 ca         1 6LF      -0.077400
     16 CAZ         -2.1160    -0.2130     6.0400 ca         1 6LF      -0.077400
     17 NAE          1.8050    -0.0020    -1.3140 na         1 6LF      -0.051100
     18 NAF          0.6780    -0.0020    -2.1410 nd         1 6LF      -0.505100
     19 NAG         -5.1600    -0.0040    -5.0770 na         1 6LF       0.070400
     20 NAH         -5.6220    -0.0040    -3.7560 nd         1 6LF      -0.517800
     21 NAI         -3.5220    -1.7150     7.1740 nb         1 6LF      -0.663000
     22 OAC         -0.6570     0.0120     3.5830 os         1 6LF      -0.316900
     23 OAD         -7.7870    -1.1920    -7.3940 oh         1 6LF      -0.613800
     24 CBA         -4.5950    -0.0080    -2.9490 cc         1 6LF       0.351200
     25 CBB         -6.9680    -1.1870    -6.2220 c3         1 6LF       0.122400
     26 CBC         -3.9950    -2.1810     6.0350 ca         1 6LF       0.426700
     27 CBD         -2.6080    -0.7640     7.2090 ca         1 6LF       0.426700
     28 Cl1         -4.1790    -2.2980     3.3310 cl         1 6LF      -0.074400
     29 Cl2         -0.9130     1.0380     6.0970 cl         1 6LF      -0.074400
     30 H1          -2.3590    -0.7540     2.7070 h1         1 6LF       0.072700
     31 H2          -1.7770     0.0090     1.2200 ha         1 6LF       0.140000
     32 H3           3.1770    -0.0030     1.2180 ha         1 6LF       0.135000
     33 H4           1.9460     0.0000     3.3270 ha         1 6LF       0.147000
     34 H5          -3.1790     1.3120     2.3360 hc         1 6LF       0.053367
     35 H6          -1.9110     2.0330     3.3360 hc         1 6LF       0.053367
     36 H7          -3.4200     1.4860     4.0790 hc         1 6LF       0.053367
     37 H8          -2.6270    -0.0010    -1.2120 ha         1 6LF       0.135000
     38 H10         -1.2050    -0.0040    -3.9300 ha         1 6LF       0.145000
     39 H12         -6.5600     0.9200    -6.3280 h1         1 6LF       0.073200
     40 H13         -5.3710    -0.0960    -7.1570 h1         1 6LF       0.073200
     41 H14         -3.1610     0.1260    -5.9120 h4         1 6LF       0.177000
     42 H15          2.7550    -0.0020    -1.6300 hn         1 6LF       0.331700
     43 H16         -4.6370    -0.0090    -1.8670 h4         1 6LF       0.051100
     44 H17         -7.5960    -1.0970    -5.3430 h1         1 6LF       0.040700
     45 H18         -4.7430    -2.9640     6.0470 h4         1 6LF       0.042100
     46 H19         -2.2420    -0.4080     8.1640 h4         1 6LF       0.042100
     47 H9          -8.3790    -1.9260    -7.3600 ho         1 6LF       0.414000
     48 H11         -6.4050    -2.1110    -6.1710 h1         1 6LF       0.040700
     49 CAW         -5.9990    -0.0060    -6.2780 c3         1 6LF       0.075300
@<TRIPOS>BOND
     1    21    26 ar
     2    21    27 ar
     3    26    15 ar
     4    27    16 ar
     5    15    28 1
     6    15     7 ar
     7    16     7 ar
     8    16    29 1
     9     7     2 1
    10    10     2 1
    11     2    22 1
    12    22     4 1
    13    24    20 2
    14    24    12 1
    15    20    19 1
    16     4     6 ar
    17     4     9 ar
    18    19    49 1
    19    19    14 1
    20    12    13 1
    21    12    14 2
    22     6     1 ar
    23    49    25 1
    24    13    11 2
    25     9     8 ar
    26    25    23 1
    27     1     5 1
    28     1     3 ar
    29     8     3 ar
    30    11     5 1
    31     5    18 2
    32     3    17 1
    33    18    17 1
    34     2    30 1
    35     6    31 1
    36     8    32 1
    37     9    33 1
    38    10    34 1
    39    10    35 1
    40    10    36 1
    41    11    37 1
    42    13    38 1
    43    49    39 1
    44    49    40 1
    45    14    41 1
    46    17    42 1
    47    24    43 1
    48    25    44 1
    49    26    45 1
    50    27    46 1
    51    23    47 1
    52    25    48 1
@<TRIPOS>SUBSTRUCTURE
     1 6LF         1 TEMP              0 ****  ****    0 ROOT
