@<TRIPOS>MOLECULE
6LG
   57    60     1     0     0
SMALL
bcc


@<TRIPOS>ATOM
      1 C10          0.0000     0.0000     0.0000 ca         1 6LG       0.231100
      2 C13         -0.7470    -0.0190     3.7050 c3         1 6LG       0.310400
      3 C17          1.3640     1.9070     6.7410 cx         1 6LG       0.119800
      4 C20         -1.6140     3.0330     3.0460 cx         1 6LG       0.119800
      5 C21         -2.2370     3.9100     4.1330 cx         1 6LG       0.119800
      6 C24          1.3850    -0.0120     2.3940 ca         1 6LG      -0.133000
      7 C26          1.3870     0.0000     0.0000 ca         1 6LG      -0.488200
      8 O01         -5.7910    -2.6750    -2.2580 o          1 6LG      -0.635100
      9 N03         -4.1270    -3.8410    -1.3650 n          1 6LG      -0.154800
     10 C04         -4.7240    -5.1090    -1.7910 c3         1 6LG       0.078800
     11 C05         -2.8920    -3.8420    -0.5760 c3         1 6LG       0.078800
     12 C06         -4.0450    -1.3940    -1.3790 ca         1 6LG      -0.133600
     13 C07         -2.6540    -1.2990    -1.4280 ca         1 6LG      -0.105000
     14 C08         -2.0350    -0.0960    -1.1300 ca         1 6LG       0.081100
     15 O09         -0.6810     0.0010    -1.1760 os         1 6LG      -0.177200
     16 C11         -0.6910    -0.0060     1.2030 ca         1 6LG      -0.227000
     17 C12          0.0030    -0.0120     2.3970 ca         1 6LG      -0.027300
     18 O14         -0.0900     0.8420     4.6360 os         1 6LG      -0.491200
     19 P15         -0.8180     2.0950     5.3380 p5         1 6LG       0.883300
     20 N16          0.0400     2.5430     6.7140 np         1 6LG      -0.482700
     21 C18          0.2210     1.3940     7.6220 cx         1 6LG       0.119800
     22 N19         -0.8710     3.3880     4.2630 np         1 6LG      -0.482700
     23 O22         -2.1970     1.7140     5.7180 o          1 6LG      -0.643300
     24 C23         -0.7840    -1.4420     4.2640 c3         1 6LG      -0.017100
     25 C25          2.0770     0.0000     1.1970 ca         1 6LG       0.021000
     26 N27          2.1280    -0.0000    -1.2810 no         1 6LG       1.054200
     27 O28          1.5200     0.0000    -2.3370 o          1 6LG      -0.447000
     28 O29          3.3460     0.0000    -1.2810 o          1 6LG      -0.447000
     29 C30         -2.7990     1.0100    -0.7830 ca         1 6LG      -0.110000
     30 C31         -4.1780     0.9170    -0.7330 ca         1 6LG      -0.096000
     31 C32         -4.8040    -0.2750    -1.0350 ca         1 6LG      -0.039000
     32 H131        -1.7590     0.3310     3.5420 h1         1 6LG       0.021700
     33 H172         2.1400     2.4600     7.2560 h1         1 6LG       0.058075
     34 H171         1.6060     1.2920     5.8830 h1         1 6LG       0.058075
     35 H202        -1.3100     3.5500     2.1440 h1         1 6LG       0.058075
     36 H201        -1.9780     2.0140     3.0000 h1         1 6LG       0.058075
     37 H211        -2.9840     3.4290     4.7530 h1         1 6LG       0.058075
     38 H212        -2.3160     4.9650     3.8970 h1         1 6LG       0.058075
     39 H241         1.9270    -0.0120     3.3320 ha         1 6LG       0.128000
     40 H041        -4.0320    -5.9190    -1.5940 h1         1 6LG       0.013867
     41 H043        -4.9390    -5.0680    -2.8520 h1         1 6LG       0.013867
     42 H042        -5.6430    -5.2770    -1.2430 h1         1 6LG       0.013867
     43 H053        -2.9060    -4.6750     0.1170 h1         1 6LG       0.013867
     44 H051        -2.8160    -2.9140    -0.0230 h1         1 6LG       0.013867
     45 H052        -2.0400    -3.9380    -1.2390 h1         1 6LG       0.013867
     46 H071        -2.0680    -2.1310    -1.7990 ha         1 6LG       0.136000
     47 H111        -1.7750    -0.0060     1.2060 ha         1 6LG       0.140000
     48 H182         0.2960     1.6360     8.6750 h1         1 6LG       0.058075
     49 H181        -0.2380     0.4670     7.3020 h1         1 6LG       0.058075
     50 H231        -0.4870    -2.1420     3.4920 hc         1 6LG       0.016367
     51 H232        -0.1020    -1.5190     5.1030 hc         1 6LG       0.016367
     52 H233        -1.7890    -1.6750     4.5940 hc         1 6LG       0.016367
     53 H251         3.1600    -0.0000     1.1980 ha         1 6LG       0.134000
     54 H301        -2.3130     1.9490    -0.5470 ha         1 6LG       0.117000
     55 H311        -4.7680     1.7840    -0.4640 ha         1 6LG       0.113000
     56 H321        -5.8850    -0.3440    -0.9950 ha         1 6LG       0.127000
     57 C02         -4.7130    -2.6750    -1.6970 c          1 6LG       0.604700
@<TRIPOS>BOND
     1     1     7 ar  
     2     1    15 1   
     3     1    16 ar  
     4     2    17 1   
     5     2    18 1   
     6     2    24 1   
     7     2    32 1   
     8     3    20 1   
     9     3    21 1   
    10     3    33 1   
    11     3    34 1   
    12     4     5 1   
    13     4    22 1   
    14     4    35 1   
    15     4    36 1   
    16     5    22 1   
    17     5    37 1   
    18     5    38 1   
    19     6    17 ar  
    20     6    25 ar  
    21     6    39 1   
    22     7    25 ar  
    23     7    26 1   
    24     8    57 2   
    25     9    10 1   
    26     9    11 1   
    27     9    57 1   
    28    10    40 1   
    29    10    41 1   
    30    10    42 1   
    31    11    43 1   
    32    11    44 1   
    33    11    45 1   
    34    12    13 ar  
    35    12    31 ar  
    36    12    57 1   
    37    13    14 ar  
    38    13    46 1   
    39    14    15 1   
    40    14    29 ar  
    41    16    17 ar  
    42    16    47 1   
    43    18    19 1   
    44    19    20 1   
    45    19    22 1   
    46    19    23 2   
    47    20    21 1   
    48    21    48 1   
    49    21    49 1   
    50    24    50 1   
    51    24    51 1   
    52    24    52 1   
    53    25    53 1   
    54    26    27 1   
    55    26    28 1   
    56    29    30 ar  
    57    29    54 1   
    58    30    31 ar  
    59    30    55 1   
    60    31    56 1   
@<TRIPOS>SUBSTRUCTURE
     1 6LG         1 TEMP              0 ****  ****    0 ROOT
