@<TRIPOS>MOLECULE
molecule
   24    24     1     0     0
SMALL
bcc


@<TRIPOS>ATOM
      1 S1           0.0000     0.0000     0.0000 sy         1 6LH       1.239200
      2 N1          -0.5980    -6.0880    -2.6480 nz         1 6LH      -0.809600
      3 C11         -1.3400    -3.9640    -1.7260 ca         1 6LH      -0.102300
      4 N2           1.6560     0.0000     0.0000 nz         1 6LH      -0.811500
      5 O5          -0.4010     0.0000     1.3640 o          1 6LH      -0.484800
      6 C12         -1.1350    -3.8380    -0.3650 ca         1 6LH      -0.107000
      7 O6          -0.4020     0.9980    -0.9280 o          1 6LH      -0.484800
      8 C13         -0.7250    -2.6260     0.1620 ca         1 6LH      -0.009000
      9 C14         -0.5220    -1.5430    -0.6720 ca         1 6LH      -0.319500
     10 C15         -0.7270    -1.6700    -2.0330 ca         1 6LH      -0.009000
     11 C16         -1.1360    -2.8810    -2.5600 ca         1 6LH      -0.107000
     12 H1          -0.8910    -6.9560    -3.0500 hn         1 6LH       0.465133
     13 H2          -0.0360    -5.5870    -3.3070 hn         1 6LH       0.465133
     14 H4          -2.3750    -5.8180    -1.5700 hx         1 6LH       0.133200
     15 H5          -2.3710    -5.1130    -3.1920 hx         1 6LH       0.133200
     16 H6           1.9890    -0.1080    -0.9370 hn         1 6LH       0.498467
     17 H7           1.9890    -0.7580     0.5620 hn         1 6LH       0.498467
     18 H8          -1.2940    -4.6870     0.2880 ha         1 6LH       0.170000
     19 H9          -0.5640    -2.5270     1.2290 ha         1 6LH       0.182000
     20 H10         -0.5670    -0.8220    -2.6870 ha         1 6LH       0.182000
     21 H11         -1.2970    -2.9810    -3.6270 ha         1 6LH       0.170000
     22 H13         -0.0840    -6.2660    -1.8080 hn         1 6LH       0.465133
     23 H23          1.9890     0.8710     0.3620 hn         1 6LH       0.498467
     24 C10         -1.7790    -5.2860    -2.3020 c3         1 6LH       0.145100
@<TRIPOS>BOND
     1     4     1 1   
     2     5     1 2   
     3     1     9 1   
     4     1     7 2   
     5     2    24 1   
     6     8     9 ar  
     7     8     6 ar  
     8     9    10 ar  
     9     6     3 ar  
    10    10    11 ar  
    11     3    11 ar  
    12     3    24 1   
    13     2    12 1   
    14     2    13 1   
    15    24    14 1   
    16    24    15 1   
    17     4    16 1   
    18     4    17 1   
    19     6    18 1   
    20     8    19 1   
    21    10    20 1   
    22    11    21 1   
    23    22     2 1   
    24    23     4 1   
@<TRIPOS>SUBSTRUCTURE
     1 6LH         1 TEMP              0 ****  ****    0 ROOT
