@<TRIPOS>MOLECULE
molecule
   55    58     1     0     0
SMALL
bcc


@<TRIPOS>ATOM
      1 C1           0.0000     0.0000     0.0000 c3         1 6LI       0.216800
      2 N1          -0.5110    -0.4840    -1.2850 na         1 6LI      -0.056100
      3 O1           1.4440     0.0000     0.0000 os         1 6LI      -0.384600
      4 P1           5.7590     0.2130     0.9370 p5         1 6LI       1.172900
      5 Cl1          2.9170     0.5660   -11.2390 cl         1 6LI      -0.103400
      6 C2           1.8240     0.0000     1.3920 c3         1 6LI       0.149100
      7 N2          -0.5960    -1.5160    -3.2050 na         1 6LI       0.103900
      8 O2          -1.5510    -0.4910     1.8250 oh         1 6LI      -0.584800
      9 C3           0.8340    -0.9710     2.0730 c3         1 6LI      -0.128900
     10 N3          -3.9840    -0.0410    -3.3620 ns         1 6LI      -0.459400
     11 O3           0.4740    -0.4910     3.3700 oh         1 6LI      -0.597800
     12 C4          -0.3940    -0.9700     1.1350 c3         1 6LI       0.062100
     13 N4          -2.7980     0.5000    -1.4170 nc         1 6LI      -0.618100
     14 C5           3.2600    -0.5060     1.5530 c3         1 6LI       0.237400
     15 C6          -1.7840    -0.8840    -3.0490 cd         1 6LI      -0.353900
     16 O6           0.7050    -2.2360    -6.5900 os         1 6LI      -0.325900
     17 C7          -1.7410    -0.2140    -1.8210 cc         1 6LI       0.204100
     18 O7           6.4460     1.3840     0.0710 o          1 6LI      -0.541500
     19 C8           0.1560    -1.2810    -2.1690 cc         1 6LI      -0.023600
     20 O8           6.3220     0.2570     2.4440 o          1 6LI      -0.541500
     21 C9          -3.8820     0.5870    -2.1560 cd         1 6LI       0.197800
     22 O9           6.0740    -1.1000     0.3300 o          1 6LI      -0.541500
     23 C10         -2.9580    -0.7830    -3.8330 c          1 6LI       0.776100
     24 C11         -0.2180    -2.3360    -4.3590 c3         1 6LI      -0.006700
     25 C12          0.3350    -1.4370    -5.4650 c3         1 6LI       0.124400
     26 C13          1.2170    -1.5870    -7.6680 ca         1 6LI       0.140100
     27 C14          1.5970    -2.3020    -8.7940 ca         1 6LI      -0.175000
     28 C15          2.1180    -1.6400    -9.8890 ca         1 6LI      -0.081500
     29 C16          2.2610    -0.2650    -9.8630 ca         1 6LI      -0.004600
     30 C17          1.8840     0.4510    -8.7400 ca         1 6LI      -0.081500
     31 C18          1.3580    -0.2070    -7.6450 ca         1 6LI      -0.175000
     32 H1          -0.3810     0.9970     0.1870 h2         1 6LI       0.103700
     33 H2           1.7370     0.9950     1.8110 h1         1 6LI       0.068700
     34 HO2         -1.2920     0.0720     2.5360 ho         1 6LI       0.425000
     35 H3           0.3840    -0.0560     1.7050 h1         1 6LI       0.114700
     36 HN3         -4.8240     0.0460    -3.8990 hn         1 6LI       0.329500
     37 HO3          0.4650    -1.2190     3.9690 ho         1 6LI       0.431000
     38 H4          -0.0600    -2.0000     1.1690 h1         1 6LI       0.211700
     39 H5           3.3380    -1.4740     1.0710 h1         1 6LI       0.057700
     40 H5A          3.4800    -0.5970     2.6090 h1         1 6LI       0.057700
     41 HN5         -4.4070     1.8390    -1.0210 hn         1 6LI       0.446133
     42 HN5A        -5.3810     1.9910    -2.3140 hn         1 6LI       0.446133
     43 H8           1.2250    -1.4260    -2.2630 h5         1 6LI       0.249000
     44 H11         -1.0610    -2.8760    -4.7730 h1         1 6LI       0.110200
     45 H11A         0.5170    -3.1190    -4.2150 h1         1 6LI       0.110200
     46 H12         -0.4530    -0.7630    -5.7780 h1         1 6LI       0.057200
     47 H12A         1.1880    -0.9190    -5.0430 h1         1 6LI       0.057200
     48 H14          1.4800    -3.3790    -8.8180 ha         1 6LI       0.145500
     49 H15          2.4170    -2.2120   -10.7590 ha         1 6LI       0.150500
     50 H17          2.0050     1.5280    -8.7590 ha         1 6LI       0.150500
     51 H18          1.0890     0.3500    -6.7560 ha         1 6LI       0.145500
     52 O4           4.1630     0.4260     0.9540 os         1 6LI      -0.578200
     53 N5          -4.9400     1.3340    -1.7020 nz         1 6LI      -0.687600
     54 O5          -3.0390    -1.3490    -4.9100 o          1 6LI      -0.646500
     55 H53         -5.5650     0.7000    -1.2450 hn         1 6LI       0.446133
@<TRIPOS>BOND
     1     1     2 1   
     2     1     3 1   
     3     1    12 1   
     4     2    17 1   
     5     2    19 2   
     6     3     6 1   
     7     4    52 1   
     8     4    18 1   
     9     4    20 1   
    10     4    22 1   
    11     5    29 1   
    12     6     9 1   
    13     6    14 1   
    14     7    15 1   
    15     7    19 1   
    16     7    24 1   
    17     8    12 1   
    18     9    11 1   
    19     9    12 1   
    20    10    21 1   
    21    10    23 1   
    22    13    17 1   
    23    13    21 2   
    24    52    14 1   
    25    53    21 1   
    26    54    23 2   
    27    15    17 2   
    28    15    23 1   
    29    16    25 1   
    30    16    26 1   
    31    24    25 1   
    32    26    27 ar  
    33    26    31 ar  
    34    27    28 ar  
    35    28    29 ar  
    36    29    30 ar  
    37    30    31 ar  
    38     1    32 1   
    39     6    33 1   
    40     8    34 1   
    41     9    35 1   
    42    10    36 1   
    43    11    37 1   
    44    12    38 1   
    45    14    39 1   
    46    14    40 1   
    47    53    41 1   
    48    53    42 1   
    49    19    43 1   
    50    24    44 1   
    51    24    45 1   
    52    25    46 1   
    53    25    47 1   
    54    27    48 1   
    55    28    49 1   
    56    30    50 1   
    57    31    51 1   
    58    55    53 1   
@<TRIPOS>SUBSTRUCTURE
     1 6LI         1 TEMP              0 ****  ****    0 ROOT
