@<TRIPOS>MOLECULE
6LI
   54    53     1     0     0
SMALL
bcc


@<TRIPOS>ATOM
      1 C1         -0.5780    0.0150    0.3420 c2        1 6LI     -0.164000
      2 N1         -0.8060    0.0720   -0.9940 na        1 6LI      0.085000
      3 O1          0.6510   -0.4070    0.7790 oh        1 6LI     -0.285000
      4 P1          4.3700    0.8970   -0.5390 p5        1 6LI      1.511500
      5 CL1         4.0050   -2.8930   -9.7940 cl        1 6LI     -0.040000
      6 C2          3.1010   -2.1630    1.9000 c3        1 6LI     -0.333000
      7 N2         -0.4080    0.3450   -3.2820 na        1 6LI      0.018000
      8 O2         -2.3380   -1.2390    1.4970 oh        1 6LI     -0.340000
      9 C3          3.4030   -3.5890    1.6180 c1        1 6LI      0.008000
     10 N3         -4.1780    0.8360   -3.3110 n         1 6LI     -0.328000
     11 O3          3.4620   -4.3140    2.7270 oh        1 6LI     -0.247000
     12 C4         -1.6270   -0.0180    1.4090 c3        1 6LI      0.066000
     13 N4         -3.3140    0.3900   -1.0780 n2        1 6LI     -0.221000
     14 C5          3.7550   -1.2680    0.8920 c2        1 6LI      0.276000
     15 C6         -1.8100    0.4930   -3.0420 c2        1 6LI     -0.235000
     16 O6          0.9350    0.8900   -6.6350 os        1 6LI     -0.262000
     17 C7         -2.0640    0.3200   -1.6560 c2        1 6LI      0.064000
     18 O7          2.9120    0.5840   -0.6840 o         1 6LI     -0.846167
     19 C8          0.1620    0.0660   -1.9890 c2        1 6LI     -0.197000
     20 O8          4.8020    2.2520   -0.1680 o         1 6LI     -0.846167
     21 C9         -4.3310    0.6790   -1.9190 c2        1 6LI      0.201000
     22 O9          5.2970   -0.1420   -1.0340 o         1 6LI     -0.846167
     23 C10        -2.9130    0.7590   -3.9410 c2        1 6LI      0.376000
     24 C11         0.3300    0.4070   -4.3640 c1        1 6LI     -0.103000
     25 C12        -0.1510    0.6740   -5.7400 c3        1 6LI     -0.052000
     26 C13         1.9840   -0.0660   -6.5650 c3        1 6LI     -0.006000
     27 C14         4.2400   -5.0840   -6.8490 c1        1 6LI     -0.175000
     28 C15         3.8330   -4.1500   -7.4770 c1        1 6LI     -0.122000
     29 C16         3.3610   -3.0460   -8.2050 c2        1 6LI      0.069000
     30 C17         2.5000   -2.1660   -7.7620 c1        1 6LI     -0.159000
     31 C18         1.6310   -1.3020   -7.3270 c2        1 6LI     -0.078000
     32 H1          1.3500    0.1720    0.3900 ho        1 6LI      0.291000
     33 H2          3.3390   -1.8360    2.9480 hc        1 6LI      0.149000
     34 HO2        -2.6510   -1.4660    0.6160 ho        1 6LI      0.198000
     35 H3         -2.3480    0.8330    1.2790 h1        1 6LI      0.098000
     36 HN3        -4.9580    1.0920   -3.8770 hn        1 6LI      0.251000
     37 HO3         3.6450   -5.2300    2.4570 ho        1 6LI      0.244000
     38 H4         -1.1090    0.0760    2.4050 h1        1 6LI      0.098000
     39 H5          1.9840   -2.0240    1.7500 hc        1 6LI      0.149000
     40 H5A         3.8270   -1.6200   -0.1640 h4        1 6LI      0.195000
     41 HN5        -6.3550    0.4240   -1.8840 hn        1 6LI      0.206000
     42 HN5A       -5.6820    0.7450   -0.3960 hn        1 6LI      0.206000
     43 H8          1.2620    0.0960   -1.8080 h5        1 6LI      0.321000
     44 H11        -2.2750    1.0370   -7.4740 ha        1 6LI      0.001000
     45 H11A       -2.9210    1.1100   -7.6640 ha        1 6LI      0.001000
     46 H12        -0.7500    1.6250   -5.8310 h1        1 6LI      0.110000
     47 H12A       -0.7770   -0.1850   -6.1170 h1        1 6LI      0.110000
     48 H14         4.6030   -5.9020   -6.2820 ha        1 6LI      0.225000
     49 H15         2.8590    0.4630   -7.0340 h1        1 6LI      0.135500
     50 H17         0.5510   -1.4600   -7.5060 ha        1 6LI      0.147000
     51 H18         2.2250   -0.3250   -5.4950 h1        1 6LI      0.135500
     52 O4          4.1700   -0.1430    1.2320 os        1 6LI     -0.382000
     53 N5         -5.6300    0.8930   -1.3830 nh        1 6LI     -0.316000
     54 O5         -2.8770    0.9110   -5.1750 o         1 6LI     -0.361000
@<TRIPOS>BOND
     1    1    2 1   
     2    1    3 1   
     3    1   12 1   
     4    2   17 1   
     5    2   19 1   
     6    3   32 1   
     7    4   18 1   
     8    4   20 1   
     9    4   22 1   
    10    4   52 1   
    11    5   29 1   
    12    6    9 1   
    13    6   14 1   
    14    6   33 1   
    15    6   39 1   
    16    7   15 1   
    17    7   19 1   
    18    7   24 1   
    19    8   12 1   
    20    8   34 1   
    21    9   11 1   
    22   10   21 1   
    23   10   23 1   
    24   10   36 1   
    25   11   37 1   
    26   12   35 1   
    27   12   38 1   
    28   13   17 1   
    29   13   21 1   
    30   14   40 1   
    31   14   52 1   
    32   15   17 1   
    33   15   23 1   
    34   16   25 1   
    35   16   26 1   
    36   19   43 1   
    37   21   53 1   
    38   23   54 1   
    39   24   25 1   
    40   25   46 1   
    41   25   47 1   
    42   26   31 1   
    43   26   49 1   
    44   26   51 1   
    45   27   28 1   
    46   27   48 1   
    47   28   29 1   
    48   29   30 1   
    49   30   31 1   
    50   31   50 1   
    51   41   53 1   
    52   42   53 1   
    53   44   45 1   
@<TRIPOS>SUBSTRUCTURE
     1 6LI         1 TEMP              0 ****  ****    0 ROOT
