@<TRIPOS>MOLECULE
molecule
   54    57     1     0     0
SMALL
bcc


@<TRIPOS>ATOM
      1 C24          0.0000     0.0000     0.0000 c3         1 6LJ      -0.179400
      2 C23          1.5310     0.0000     0.0000 c3         1 6LJ      -0.150900
      3 C22          2.0370     0.0000     1.4450 c3         1 6LJ      -0.362700
      4 C12          6.0090    -2.0060     9.5630 cp         1 6LJ      -0.111500
      5 C5           7.8130    -2.2600     5.7540 ca         1 6LJ      -0.182300
      6 C2           6.6370    -2.0940     8.2240 cp         1 6LJ       0.513800
      7 C1           5.8410    -1.9430     7.0830 ca         1 6LJ      -0.331300
      8 C4           8.5560    -2.3920     6.9530 ca         1 6LJ       0.453600
      9 C6           6.4190    -2.0300     5.8300 ca         1 6LJ       0.187600
     10 C7           9.9430    -2.6160     6.8770 ca         1 6LJ      -0.164300
     11 C8          10.5470    -2.7000     5.6610 ca         1 6LJ      -0.113000
     12 C25         -0.5020    -1.2230     0.7740 c3         1 6LJ      -0.150900
     13 C26          0.0620    -1.1880     2.1950 c3         1 6LJ      -0.362700
     14 C9           9.8140    -2.5700     4.4840 ca         1 6LJ      -0.133000
     15 C10          8.4690    -2.3530     4.5190 ca         1 6LJ      -0.108000
     16 C13          4.2120    -1.6550     4.7840 c3         1 6LJ       0.207800
     17 C14          3.6120    -1.5450     3.3810 c3         1 6LJ      -0.123400
     18 C17          6.7940    -2.1370    10.7230 ca         1 6LJ       0.024000
     19 C18          6.1890    -2.0460    11.9770 ca         1 6LJ      -0.100000
     20 C19          4.8300    -1.8270    12.0720 ca         1 6LJ      -0.124000
     21 C20          4.0590    -1.6970    10.9300 ca         1 6LJ      -0.117000
     22 C21          4.6400    -1.7850     9.6800 ca         1 6LJ      -0.118000
     23 N28          9.3220    -2.5490    10.5530 n1         1 6LJ      -0.362800
     24 N11          5.6540    -1.8940     4.6800 nu         1 6LJ      -0.752600
     25 N16          1.5300    -1.1900     2.1410 n3         1 6LJ       0.190400
     26 N3           7.9390    -2.3040     8.1360 nb         1 6LJ      -0.705000
     27 H1          -0.3500    -0.9480     0.3910 hc         1 6LJ       0.128700
     28 H2          -0.3500     0.1180    -1.0180 hc         1 6LJ       0.128700
     29 H3           1.8810     0.7970    -0.6440 hc         1 6LJ       0.127950
     30 H4           1.8810     0.1760     1.0100 hc         1 6LJ       0.127950
     31 H5           3.1140     0.1170     1.4390 h1         1 6LJ      -0.006050
     32 H6           1.7830    -0.9470     1.9050 h1         1 6LJ      -0.006050
     33 H7           4.7810    -1.7410     7.1860 ha         1 6LJ       0.137000
     34 H8          10.5250    -2.7190     7.7850 ha         1 6LJ       0.162000
     35 H9          11.6140    -2.8730     5.5970 ha         1 6LJ       0.134000
     36 H10         -1.5790    -1.2830     0.6730 hc         1 6LJ       0.127950
     37 H11         -0.2470    -1.1040     1.8200 hc         1 6LJ       0.127950
     38 H12          1.1340    -1.3390     2.1500 h1         1 6LJ      -0.006050
     39 H13         -0.3870    -1.9890     2.7700 h1         1 6LJ      -0.006050
     40 H14         10.3130    -2.6400     3.5250 ha         1 6LJ       0.130000
     41 H15          7.9070    -2.2530     3.5990 ha         1 6LJ       0.131000
     42 H16          3.5010    -2.1360     5.4440 h1         1 6LJ       0.048200
     43 H17          4.4410    -0.6650     5.1580 h1         1 6LJ       0.048200
     44 H18          4.1330    -2.2190     2.7110 hc         1 6LJ       0.075200
     45 H19          3.7170    -0.5280     3.0220 hc         1 6LJ       0.075200
     46 H20          1.5700    -2.1610     3.1160 h1         1 6LJ       0.095700
     47 H21          1.8420    -1.1260     4.5250 h1         1 6LJ       0.095700
     48 H22          6.7860    -2.1460    12.8750 ha         1 6LJ       0.144000
     49 H23          4.3600    -1.7550    13.0460 ha         1 6LJ       0.137000
     50 H24          2.9920    -1.5250    11.0130 ha         1 6LJ       0.135000
     51 H25          4.0310    -1.6770     8.7910 ha         1 6LJ       0.136000
     52 H26          6.1620    -1.2910     4.0640 hn         1 6LJ       0.416800
     53 C15          2.1060    -1.2960     3.4880 c3         1 6LJ       0.063800
     54 C27          8.2040    -2.3640    10.6170 cg         1 6LJ       0.263800
@<TRIPOS>BOND
     1    23    54 3
     2    19    20 ar
     3    19    18 ar
     4    54    18 1
     5    20    21 ar
     6    18     4 ar
     7    21    22 ar
     8     4    22 ar
     9     4     6 1
    10     7     6 ar
    11     7     9 ar
    12     6    26 ar
    13    13    12 1
    14    13    25 1
    15    24     9 1
    16    24    16 1
    17     9     5 ar
    18    16    17 1
    19    12     1 1
    20    26     8 ar
    21     1     2 1
    22    53    25 1
    23    53    17 1
    24    25     3 1
    25     3     2 1
    26     5     8 ar
    27     5    15 ar
    28     8    10 ar
    29    15    14 ar
    30    10    11 ar
    31    14    11 ar
    32     1    27 1
    33     1    28 1
    34     2    29 1
    35     2    30 1
    36     3    31 1
    37     3    32 1
    38     7    33 1
    39    10    34 1
    40    11    35 1
    41    12    36 1
    42    12    37 1
    43    13    38 1
    44    13    39 1
    45    14    40 1
    46    15    41 1
    47    16    42 1
    48    16    43 1
    49    17    44 1
    50    17    45 1
    51    53    46 1
    52    53    47 1
    53    19    48 1
    54    20    49 1
    55    21    50 1
    56    22    51 1
    57    24    52 1
@<TRIPOS>SUBSTRUCTURE
     1 6LJ         1 TEMP              0 ****  ****    0 ROOT
