@<TRIPOS>MOLECULE
6LJ
   54    57     1     0     0
SMALL
bcc


@<TRIPOS>ATOM
      1 C24          0.0000     0.0000     0.0000 c3         1 6LJ      -0.147400
      2 C23          1.5310     0.0000     0.0000 c3         1 6LJ      -0.044900
      3 C22          2.0370     0.0000     1.4450 c3         1 6LJ      -0.309200
      4 C12          6.0090    -2.0060     9.5630 cp         1 6LJ      -0.124500
      5 C5           7.8130    -2.2600     5.7540 ca         1 6LJ      -0.173300
      6 C2           6.6370    -2.0940     8.2240 cp         1 6LJ       0.468800
      7 C1           5.8410    -1.9430     7.0830 ca         1 6LJ      -0.315300
      8 C4           8.5560    -2.3920     6.9530 ca         1 6LJ       0.407600
      9 C6           6.4190    -2.0300     5.8300 ca         1 6LJ       0.072600
     10 C7           9.9430    -2.6160     6.8770 ca         1 6LJ      -0.140300
     11 C8          10.5470    -2.7000     5.6610 ca         1 6LJ      -0.088000
     12 C25         -0.5020    -1.2230     0.7740 c3         1 6LJ      -0.044900
     13 C26          0.0620    -1.1880     2.1950 c3         1 6LJ      -0.309200
     14 C9           9.8140    -2.5700     4.4840 ca         1 6LJ      -0.101000
     15 C10          8.4690    -2.3530     4.5190 ca         1 6LJ      -0.087000
     16 C13          4.2120    -1.6550     4.7840 c3         1 6LJ       0.151800
     17 C14          3.6120    -1.5450     3.3810 c3         1 6LJ      -0.083400
     18 C17          6.7940    -2.1370    10.7230 ca         1 6LJ       0.067000
     19 C18          6.1890    -2.0460    11.9770 ca         1 6LJ      -0.080000
     20 C19          4.8300    -1.8270    12.0720 ca         1 6LJ      -0.095000
     21 C20          4.0590    -1.6970    10.9300 ca         1 6LJ      -0.090000
     22 C21          4.6400    -1.7850     9.6800 ca         1 6LJ      -0.097000
     23 N28          9.3220    -2.5490    10.5530 n1         1 6LJ      -0.386800
     24 N11          5.6540    -1.8940     4.6800 nu         1 6LJ      -0.399600
     25 N16          1.5300    -1.1900     2.1410 n3         1 6LJ       1.481400
     26 N3           7.9390    -2.3040     8.1360 nb         1 6LJ      -0.590000
     27 H1          -0.3500    -0.9480     0.3910 hc         1 6LJ       0.036200
     28 H2          -0.3500     0.1180    -1.0180 hc         1 6LJ       0.036200
     29 H3           1.8810     0.7970    -0.6440 hc         1 6LJ       0.045200
     30 H4           1.8810     0.1760     1.0100 hc         1 6LJ       0.045200
     31 H5           3.1140     0.1170     1.4390 h1         1 6LJ      -0.201800
     32 H6           1.7830    -0.9470     1.9050 h1         1 6LJ      -0.201800
     33 H7           4.7810    -1.7410     7.1860 ha         1 6LJ       0.130000
     34 H8          10.5250    -2.7190     7.7850 ha         1 6LJ       0.132000
     35 H9          11.6140    -2.8730     5.5970 ha         1 6LJ       0.104000
     36 H10         -1.5790    -1.2830     0.6730 hc         1 6LJ       0.045200
     37 H11         -0.2470    -1.1040     1.8200 hc         1 6LJ       0.045200
     38 H12          1.1340    -1.3390     2.1500 h1         1 6LJ      -0.201800
     39 H13         -0.3870    -1.9890     2.7700 h1         1 6LJ      -0.201800
     40 H14         10.3130    -2.6400     3.5250 ha         1 6LJ       0.102000
     41 H15          7.9070    -2.2530     3.5990 ha         1 6LJ       0.106000
     42 H16          3.5010    -2.1360     5.4440 h1         1 6LJ       0.020700
     43 H17          4.4410    -0.6650     5.1580 h1         1 6LJ       0.020700
     44 H18          4.1330    -2.2190     2.7110 hc         1 6LJ       0.049200
     45 H19          3.7170    -0.5280     3.0220 hc         1 6LJ       0.049200
     46 H20          1.5700    -2.1610     3.1160 h1         1 6LJ       0.042700
     47 H21          1.8420    -1.1260     4.5250 h1         1 6LJ       0.042700
     48 H22          6.7860    -2.1460    12.8750 ha         1 6LJ       0.114000
     49 H23          4.3600    -1.7550    13.0460 ha         1 6LJ       0.107000
     50 H24          2.9920    -1.5250    11.0130 ha         1 6LJ       0.105000
     51 H25          4.0310    -1.6770     8.7910 ha         1 6LJ       0.112000
     52 H26          6.1620    -1.2910     4.0640 hn         1 6LJ       0.282800
     53 C15          2.1060    -1.2960     3.4880 c3         1 6LJ      -0.162200
     54 C27          8.2040    -2.3640    10.6170 cg         1 6LJ       0.253800
@<TRIPOS>BOND
     1     1     2 1   
     2     1    12 1   
     3     1    27 1   
     4     1    28 1   
     5     2     3 1   
     6     2    29 1   
     7     2    30 1   
     8     3    25 1   
     9     3    31 1   
    10     3    32 1   
    11     4     6 1   
    12     4    18 ar  
    13     4    22 ar  
    14     5     8 ar  
    15     5     9 ar  
    16     5    15 ar  
    17     6     7 ar  
    18     6    26 ar  
    19     7     9 ar  
    20     7    33 1   
    21     8    10 ar  
    22     8    26 ar  
    23     9    24 1   
    24    10    11 ar  
    25    10    34 1   
    26    11    14 ar  
    27    11    35 1   
    28    12    13 1   
    29    12    36 1   
    30    12    37 1   
    31    13    25 1   
    32    13    38 1   
    33    13    39 1   
    34    14    15 ar  
    35    14    40 1   
    36    15    41 1   
    37    16    17 1   
    38    16    24 1   
    39    16    42 1   
    40    16    43 1   
    41    17    44 1   
    42    17    45 1   
    43    17    53 1   
    44    18    19 ar  
    45    18    54 1   
    46    19    20 ar  
    47    19    48 1   
    48    20    21 ar  
    49    20    49 1   
    50    21    22 ar  
    51    21    50 1   
    52    22    51 1   
    53    23    54 3   
    54    24    52 1   
    55    25    53 1   
    56    46    53 1   
    57    47    53 1   
@<TRIPOS>SUBSTRUCTURE
     1 6LJ         1 TEMP              0 ****  ****    0 ROOT
