@<TRIPOS>MOLECULE
molecule
   41    43     1     0     0
SMALL
bcc


@<TRIPOS>ATOM
      1 C5           0.0000     0.0000     0.0000 ca         1 6LK       0.439200
      2 C6           1.3870     0.0000     0.0000 ca         1 6LK      -0.115500
      3 C7           2.0660     0.0000     1.2170 ca         1 6LK      -0.058000
      4 C8           1.3250    -0.0010     2.3850 ca         1 6LK      -0.100900
      5 C13          4.9720     0.9860    -3.2850 c3         1 6LK      -0.096400
      6 C15          2.5970    -0.9310    -4.5990 ca         1 6LK       0.025000
      7 C17          0.4940    -1.9390    -3.9520 ca         1 6LK      -0.057000
      8 C20          1.3520    -2.2810    -6.2680 c          1 6LK       0.703700
      9 C26          1.5020    -4.8510    -8.2250 c3         1 6LK      -0.235300
     10 C1          -2.2220    -0.0020     3.3000 c3         1 6LK       0.135700
     11 C3          -0.0640    -0.0020     2.3060 ca         1 6LK       0.658600
     12 N4          -0.6740     0.0030     1.1340 nb         1 6LK      -0.741000
     13 Cl9          2.1170    -0.0010     3.9300 cl         1 6LK      -0.068400
     14 N10          2.0970     0.0010    -1.2090 na         1 6LK       0.151800
     15 N11          3.3120     0.6540    -1.4360 nc         1 6LK      -0.497100
     16 C12          3.7100     0.4500    -2.6590 cd         1 6LK       0.396900
     17 C14          2.7130    -0.3910    -3.3170 ca         1 6LK      -0.261900
     18 C16          1.4870    -1.7050    -4.9150 ca         1 6LK      -0.207600
     19 C18          0.6090    -1.4260    -2.6960 ca         1 6LK      -0.164000
     20 C19          1.7100    -0.6400    -2.3570 ca         1 6LK       0.008800
     21 O21          2.2110    -2.0790    -7.1040 o          1 6LK      -0.577100
     22 N22          0.2750    -3.0310    -6.5760 ns         1 6LK      -0.654300
     23 S23          0.1250    -3.6780    -8.0940 s6         1 6LK       1.315600
     24 O24          0.3240    -2.5740    -8.9660 o          1 6LK      -0.609800
     25 O25         -1.1170    -4.3690    -8.0580 o          1 6LK      -0.609800
     26 H1          -0.5360     0.0020    -0.9420 h4         1 6LK       0.039100
     27 H2           3.1490     0.0000     1.2480 ha         1 6LK       0.177000
     28 H3           5.4900     1.6150    -2.5700 hc         1 6LK       0.060367
     29 H4           5.6120     0.1610    -3.5710 hc         1 6LK       0.060367
     30 H5           4.7200     1.5690    -4.1620 hc         1 6LK       0.060367
     31 H6           3.3650    -0.7480    -5.3410 ha         1 6LK       0.163000
     32 H7          -0.3680    -2.5440    -4.2070 ha         1 6LK       0.131000
     33 H8           1.6910    -5.2950    -7.2560 h1         1 6LK       0.104367
     34 H9           2.3890    -4.3290    -8.5630 h1         1 6LK       0.104367
     35 H10          1.2470    -5.6280    -8.9350 h1         1 6LK       0.104367
     36 H11         -2.6860    -0.0050     4.2800 h1         1 6LK       0.050033
     37 H12         -2.5320    -0.8840     2.7520 h1         1 6LK       0.050033
     38 H13         -2.5260     0.8850     2.7590 h1         1 6LK       0.050033
     39 H14         -0.1650    -1.6150    -1.9620 ha         1 6LK       0.143000
     40 H15         -0.4520    -3.1630    -5.9020 hn         1 6LK       0.348500
     41 O2          -0.8000    -0.0020     3.4460 os         1 6LK      -0.424100
@<TRIPOS>BOND
     1    10    41 1
     2    41    11 1
     3    12    11 ar
     4    12     1 ar
     5    11     4 ar
     6     1     2 ar
     7    21     8 2
     8     7    19 ar
     9     7    18 ar
    10    19    20 ar
    11     4    13 1
    12     4     3 ar
    13     2     3 ar
    14     2    14 1
    15     8    18 1
    16     8    22 1
    17    24    23 2
    18    18     6 ar
    19    20    14 1
    20    20    17 ar
    21     9    23 1
    22    14    15 1
    23    23    22 1
    24    23    25 2
    25     6    17 ar
    26    17    16 1
    27    15    16 2
    28    16     5 1
    29     1    26 1
    30     3    27 1
    31     5    28 1
    32     5    29 1
    33     5    30 1
    34     6    31 1
    35     7    32 1
    36     9    33 1
    37     9    34 1
    38     9    35 1
    39    10    36 1
    40    10    37 1
    41    10    38 1
    42    19    39 1
    43    22    40 1
@<TRIPOS>SUBSTRUCTURE
     1 6LK         1 TEMP              0 ****  ****    0 ROOT
