@<TRIPOS>MOLECULE
6LK
   41    43     1     0     0
SMALL
bcc


@<TRIPOS>ATOM
      1 C5           0.0000     0.0000     0.0000 ca         1 6LK       0.426200
      2 C6           1.3870     0.0000     0.0000 ca         1 6LK      -0.287500
      3 C7           2.0660     0.0000     1.2170 ca         1 6LK      -0.024000
      4 C8           1.3250    -0.0010     2.3850 ca         1 6LK      -0.181900
      5 C13          4.9720     0.9860    -3.2850 c3         1 6LK       0.010600
      6 C15          2.5970    -0.9310    -4.5990 ca         1 6LK       0.072000
      7 C17          0.4940    -1.9390    -3.9520 ca         1 6LK      -0.032000
      8 C20          1.3520    -2.2810    -6.2680 c          1 6LK       0.680700
      9 C26          1.5020    -4.8510    -8.2250 c3         1 6LK       0.021700
     10 C1          -2.2220    -0.0020     3.3000 c3         1 6LK       0.255700
     11 C3          -0.0640    -0.0020     2.3060 ca         1 6LK       0.628600
     12 N4          -0.6740     0.0030     1.1340 nb         1 6LK      -0.636000
     13 Cl9          2.1170    -0.0010     3.9300 cl         1 6LK       0.026600
     14 N10          2.0970     0.0010    -1.2090 na         1 6LK       0.612800
     15 N11          3.3120     0.6540    -1.4360 nc         1 6LK      -0.637100
     16 C12          3.7100     0.4500    -2.6590 cd         1 6LK       0.419900
     17 C14          2.7130    -0.3910    -3.3170 ca         1 6LK      -0.277900
     18 C16          1.4870    -1.7050    -4.9150 ca         1 6LK      -0.226600
     19 C18          0.6090    -1.4260    -2.6960 ca         1 6LK      -0.133000
     20 C19          1.7100    -0.6400    -2.3570 ca         1 6LK      -0.162200
     21 O21          2.2110    -2.0790    -7.1040 o          1 6LK      -0.619100
     22 N22          0.2750    -3.0310    -6.5760 ns         1 6LK      -0.322300
     23 S23          0.1250    -3.6780    -8.0940 s6         1 6LK       0.954600
     24 O24          0.3240    -2.5740    -8.9660 o          1 6LK      -0.569300
     25 O25         -1.1170    -4.3690    -8.0580 o          1 6LK      -0.569300
     26 H1          -0.5360     0.0020    -0.9420 h4         1 6LK      -0.002900
     27 H2           3.1490     0.0000     1.2480 ha         1 6LK       0.140000
     28 H3           5.4900     1.6150    -2.5700 hc         1 6LK       0.017700
     29 H4           5.6120     0.1610    -3.5710 hc         1 6LK       0.017700
     30 H5           4.7200     1.5690    -4.1620 hc         1 6LK       0.017700
     31 H6           3.3650    -0.7480    -5.3410 ha         1 6LK       0.126000
     32 H7          -0.3680    -2.5440    -4.2070 ha         1 6LK       0.102000
     33 H8           1.6910    -5.2950    -7.2560 h1         1 6LK       0.067367
     34 H9           2.3890    -4.3290    -8.5630 h1         1 6LK       0.067367
     35 H10          1.2470    -5.6280    -8.9350 h1         1 6LK       0.067367
     36 H11         -2.6860    -0.0050     4.2800 h1         1 6LK       0.002367
     37 H12         -2.5320    -0.8840     2.7520 h1         1 6LK       0.002367
     38 H13         -2.5260     0.8850     2.7590 h1         1 6LK       0.002367
     39 H14         -0.1650    -1.6150    -1.9620 ha         1 6LK       0.119000
     40 H15         -0.4520    -3.1630    -5.9020 hn         1 6LK       0.239500
     41 O2          -0.8000    -0.0020     3.4460 os         1 6LK      -0.419100
@<TRIPOS>BOND
     1     1     2 ar  
     2     1    12 ar  
     3     1    26 1   
     4     2     3 ar  
     5     2    14 1   
     6     3     4 ar  
     7     3    27 1   
     8     4    11 ar  
     9     4    13 1   
    10     5    16 1   
    11     5    28 1   
    12     5    29 1   
    13     5    30 1   
    14     6    17 ar  
    15     6    18 ar  
    16     6    31 1   
    17     7    18 ar  
    18     7    19 ar  
    19     7    32 1   
    20     8    18 1   
    21     8    21 2   
    22     8    22 1   
    23     9    23 1   
    24     9    33 1   
    25     9    34 1   
    26     9    35 1   
    27    10    36 1   
    28    10    37 1   
    29    10    38 1   
    30    10    41 1   
    31    11    12 ar  
    32    11    41 1   
    33    14    15 1   
    34    14    20 1   
    35    15    16 2   
    36    16    17 1   
    37    17    20 ar  
    38    19    20 ar  
    39    19    39 1   
    40    22    23 1   
    41    22    40 1   
    42    23    24 2   
    43    23    25 2   
@<TRIPOS>SUBSTRUCTURE
     1 6LK         1 TEMP              0 ****  ****    0 ROOT
