@<TRIPOS>MOLECULE
molecule
   41    42     1     0     0
SMALL
bcc


@<TRIPOS>ATOM
      1 C10          0.0000     0.0000     0.0000 c3         1 6LM      -0.109000
      2 C15          1.8340     0.0000     1.5270 c3         1 6LM       0.115800
      3 C17         -0.3210    -0.8850     1.2260 c3         1 6LM       0.117400
      4 C01          4.9430     2.3440    -2.3440 c3         1 6LM      -0.063100
      5 C02          3.4140     2.3850    -2.3660 c3         1 6LM      -0.037500
      6 C03          2.9270     2.4550    -3.8150 c3         1 6LM      -0.175400
      7 C04          3.3700     3.7560    -4.4330 c          1 6LM       0.890600
      8 O05          3.0540     4.0370    -5.7070 o          1 6LM      -0.853300
      9 O06          4.0100     4.5470    -3.7800 o          1 6LM      -0.853300
     10 C07          2.8680     1.1430    -1.7120 c2         1 6LM      -0.084200
     11 C09          1.5550     0.0000     0.0000 c3         1 6LM       0.183000
     12 C11         -0.4360     1.4370     0.3510 c3         1 6LM      -0.173400
     13 C12          0.1120     1.7620     1.7240 c          1 6LM       0.577100
     14 O13         -0.5900     2.2760     2.5610 o          1 6LM      -0.535100
     15 C14          1.5580     1.4300     2.0280 c3         1 6LM      -0.192400
     16 O16          0.8250    -0.8610     2.0850 os         1 6LM      -0.424600
     17 C18          3.2500    -0.4780     1.8570 c3         1 6LM      -0.070100
     18 C19         -0.6050    -0.5280    -1.3020 c3         1 6LM      -0.064100
     19 O20          2.0720    -1.1780    -0.6210 oh         1 6LM      -0.585800
     20 H1          -0.5200    -1.9010     0.9060 h1         1 6LM       0.047700
     21 H2          -1.1820    -0.4900     1.7510 h1         1 6LM       0.047700
     22 H5           5.2730     1.4940    -1.7590 hc         1 6LM       0.029700
     23 H6           3.0680     3.2590    -1.8270 hc         1 6LM       0.061700
     24 H7           3.3450     1.6280    -4.3770 hc         1 6LM       0.032200
     25 H8           1.8460     2.3960    -3.8360 hc         1 6LM       0.032200
     26 H10          3.1080     0.1670    -2.1170 ha         1 6LM       0.134000
     27 H12         -1.5170     1.5010     0.3620 hc         1 6LM       0.080700
     28 H13         -0.0350     2.1310    -0.3790 hc         1 6LM       0.080700
     29 H14          2.2100     2.1290     1.5180 hc         1 6LM       0.081700
     30 H15          1.7290     1.4830     3.0970 hc         1 6LM       0.081700
     31 H16          3.9680     0.1060     1.2940 hc         1 6LM       0.048033
     32 H17          3.3490    -1.5240     1.5940 hc         1 6LM       0.048033
     33 H18          3.4350    -0.3530     2.9170 hc         1 6LM       0.048033
     34 H19         -0.5880     0.2550    -2.0510 hc         1 6LM       0.045367
     35 H20         -1.6280    -0.8370    -1.1250 hc         1 6LM       0.045367
     36 H21         -0.0270    -1.3750    -1.6510 hc         1 6LM       0.045367
     37 H22          1.9990    -1.9050    -0.0250 ho         1 6LM       0.403000
     38 C08          2.1020     1.2420    -0.6540 c2         1 6LM      -0.251200
     39 H3           5.3160     2.2500    -3.3570 hc         1 6LM       0.029700
     40 H11          1.8610     2.2180    -0.2500 ha         1 6LM       0.136000
     41 H4           5.3230     3.2570    -1.9020 hc         1 6LM       0.029700
@<TRIPOS>BOND
     1     9     7 1
     2     8     7 1
     3     7     6 1
     4    18     1 1
     5    12     1 1
     6    12    13 1
     7     6     5 1
     8     1     3 1
     9     1    11 1
    10    10     5 1
    11    10    38 2
    12    14    13 2
    13     5     4 1
    14     3    16 1
    15    13    15 1
    16    11    38 1
    17    11    19 1
    18    11     2 1
    19    15     2 1
    20    16     2 1
    21     2    17 1
    22     3    20 1
    23     3    21 1
    24     4    39 1
    25     4    41 1
    26     4    22 1
    27     5    23 1
    28     6    24 1
    29     6    25 1
    30    10    26 1
    31    38    40 1
    32    12    27 1
    33    12    28 1
    34    15    29 1
    35    15    30 1
    36    17    31 1
    37    17    32 1
    38    17    33 1
    39    18    34 1
    40    18    35 1
    41    18    36 1
    42    19    37 1
@<TRIPOS>SUBSTRUCTURE
     1 6LM         1 TEMP              0 ****  ****    0 ROOT
