@<TRIPOS>MOLECULE
molecule
   10     9     1     0     0
SMALL
bcc


@<TRIPOS>ATOM
      1 C1           0.0000     0.0000     0.0000 c3         1 6LN       0.057700
      2 S1           1.8140     0.0000     0.0000 sh         1 6LN      -0.425900
      3 C2          -0.5100     0.0000     1.4430 c3         1 6LN       0.057700
      4 S2          -2.3240     0.0000     1.4430 sh         1 6LN      -0.425900
      5 H1          -0.3610    -0.8850    -0.5110 h1         1 6LN       0.070700
      6 H2          -0.3610     0.8850    -0.5110 h1         1 6LN       0.070700
      7 H3           2.2570    -0.0000    -1.2520 hs         1 6LN       0.226800
      8 H4          -0.1490    -0.8850     1.9540 h1         1 6LN       0.070700
      9 H5          -0.1490     0.8850     1.9540 h1         1 6LN       0.070700
     10 H6          -2.7670     0.0000     2.6950 hs         1 6LN       0.226800
@<TRIPOS>BOND
     1     3     4 1
     2     3     1 1
     3     1     2 1
     4     1     5 1
     5     1     6 1
     6     2     7 1
     7     3     8 1
     8     3     9 1
     9     4    10 1
@<TRIPOS>SUBSTRUCTURE
     1 6LN         1 TEMP              0 ****  ****    0 ROOT
