@<TRIPOS>MOLECULE
molecule
   60    64     1     0     0
SMALL
bcc


@<TRIPOS>ATOM
      1 C4           0.0000     0.0000     0.0000 ca         1 6LO       0.519800
      2 C5           1.4060     0.0000     0.0000 ca         1 6LO      -0.382400
      3 C6           2.0800     0.0000     1.2290 ca         1 6LO       0.772200
      4 N1           1.3570     0.0000     2.3450 nb         1 6LO      -0.827000
      5 N3          -0.6360    -0.0000     1.1710 nb         1 6LO      -0.795000
      6 CAD         -1.8070     0.0080    -1.7460 cy         1 6LO       0.032000
      7 NAE         -0.4090     0.0050    -1.3070 na         1 6LO      -0.141100
      8 CAF          0.6740     0.0090    -2.1420 cc         1 6LO      -0.096100
      9 C2           0.0360    -0.0010     2.3010 ca         1 6LO       0.733900
     10 NAX          3.4620     0.0000     1.2790 nv         1 6LO      -1.015500
     11 CAG          1.8150     0.0010    -1.4110 cd         1 6LO      -0.075400
     12 CAH          3.2030     0.0020    -1.9300 ca         1 6LO       0.014200
     13 CAM          3.5840    -0.9170    -2.9060 ca         1 6LO      -0.157000
     14 CAI          4.1300     0.9260    -1.4500 ca         1 6LO      -0.162000
     15 CAJ          5.4220     0.9240    -1.9360 ca         1 6LO      -0.094000
     16 CAK          5.8000     0.0080    -2.9010 ca         1 6LO      -0.226000
     17 CAL          4.8830    -0.9120    -3.3880 ca         1 6LO       0.142100
     18 OAN          5.2580    -1.8070    -4.3400 os         1 6LO      -0.324900
     19 CAO          6.6120    -1.7440    -4.7910 c3         1 6LO       0.187700
     20 CAP          6.8430    -2.8040    -5.8370 ca         1 6LO      -0.096300
     21 CAQ          6.6280    -2.5160    -7.1720 ca         1 6LO      -0.103500
     22 CAR          6.8390    -3.4890    -8.1310 ca         1 6LO      -0.131500
     23 CAS          7.2650    -4.7480    -7.7560 ca         1 6LO      -0.117000
     24 CAT          7.4800    -5.0370    -6.4210 ca         1 6LO      -0.131500
     25 CAU          7.2750    -4.0620    -5.4630 ca         1 6LO      -0.103500
     26 H4           0.6270     0.0170    -3.2240 h4         1 6LO       0.176000
     27 H5          -0.5150    -0.0000     3.2340 h5         1 6LO       0.059100
     28 H6           3.9350     0.4670     2.0270 hn         1 6LO       0.446300
     29 H7           3.9870    -0.5020     0.5900 hn         1 6LO       0.446300
     30 H8           2.8670    -1.6350    -3.2850 ha         1 6LO       0.146000
     31 H9           3.8360     1.6450    -0.6950 ha         1 6LO       0.145000
     32 H10          6.1410     1.6420    -1.5610 ha         1 6LO       0.132000
     33 H11          6.8150     0.0110    -3.2790 ha         1 6LO       0.135000
     34 H12          6.8060    -0.7670    -5.2180 h1         1 6LO       0.041700
     35 H13          7.2800    -1.9110    -3.9540 h1         1 6LO       0.041700
     36 H14          6.2940    -1.5290    -7.4660 ha         1 6LO       0.133500
     37 H15          6.6700    -3.2630    -9.1780 ha         1 6LO       0.132500
     38 H16          7.4270    -5.5110    -8.5080 ha         1 6LO       0.131000
     39 H17          7.8160    -6.0240    -6.1280 ha         1 6LO       0.132500
     40 H18          7.4440    -4.2880    -4.4170 ha         1 6LO       0.133500
     41 C1          -2.2220     1.3010    -2.4670 cy         1 6LO      -0.103900
     42 C3          -1.7580     0.6310    -3.7700 cy         1 6LO      -0.126700
     43 C7          -2.0330    -0.7170    -3.0830 cy         1 6LO      -0.103900
     44 C8          -2.6750     0.9080    -4.9640 c3         1 6LO       0.124000
     45 N2          -2.0880     0.3310    -6.1750 ns         1 6LO      -0.590900
     46 C10         -2.7260     0.4520    -7.3570 c          1 6LO       0.655100
     47 O1          -3.7860     1.0390    -7.4160 o          1 6LO      -0.608100
     48 C12         -2.1230    -0.1430    -8.6030 c3         1 6LO      -0.171100
     49 H1          -2.5140    -0.2910    -0.9830 h1         1 6LO       0.101700
     50 H2          -3.2910     1.4780    -2.4390 hc         1 6LO       0.071950
     51 H3          -1.6150     2.1550    -2.1900 hc         1 6LO       0.071950
     52 H19         -0.7060     0.7910    -3.9710 hc         1 6LO       0.073700
     53 H20         -1.2760    -1.4620    -3.2940 hc         1 6LO       0.071950
     54 H21         -3.0530    -1.0590    -3.2120 hc         1 6LO       0.071950
     55 H22         -3.6460     0.4630    -4.7850 h1         1 6LO       0.056700
     56 H23         -2.7870     1.9780    -5.0920 h1         1 6LO       0.056700
     57 H24         -1.1800    -0.0880    -6.1390 hn         1 6LO       0.311500
     58 H25         -1.9810    -1.2080    -8.4630 hc         1 6LO       0.061033
     59 H26         -1.1670     0.3260    -8.8010 hc         1 6LO       0.061033
     60 H27         -2.7880     0.0250    -9.4410 hc         1 6LO       0.061033
@<TRIPOS>BOND
     1     6     7 1
     2     5     9 ar
     3     5     1 ar
     4     9     4 ar
     5     7     1 1
     6     7     8 1
     7     1     2 ar
     8    24    23 ar
     9    24    25 ar
    10     4     3 ar
    11     8    11 2
    12    23    22 ar
    13     2     3 ar
    14     2    11 1
    15     3    10 1
    16    25    20 ar
    17    11    12 1
    18    13    12 ar
    19    13    17 ar
    20    18    17 1
    21    18    19 1
    22    22    21 ar
    23    20    21 ar
    24    20    19 1
    25    12    14 ar
    26    17    16 ar
    27    14    15 ar
    28    16    15 ar
    29     8    26 1
    30     9    27 1
    31    10    28 1
    32    10    29 1
    33    13    30 1
    34    14    31 1
    35    15    32 1
    36    16    33 1
    37    19    34 1
    38    19    35 1
    39    21    36 1
    40    22    37 1
    41    23    38 1
    42    24    39 1
    43    25    40 1
    44     6    41 1
    45    41    42 1
    46    42    43 1
    47    43     6 1
    48    42    44 1
    49    44    45 1
    50    45    46 1
    51    46    47 2
    52    46    48 1
    53     6    49 1
    54    41    50 1
    55    41    51 1
    56    42    52 1
    57    43    53 1
    58    43    54 1
    59    44    55 1
    60    44    56 1
    61    45    57 1
    62    48    58 1
    63    48    59 1
    64    48    60 1
@<TRIPOS>SUBSTRUCTURE
     1 6LO         1 TEMP              0 ****  ****    0 ROOT
