@<TRIPOS>MOLECULE
molecule
   42    44     1     0     0
SMALL
bcc


@<TRIPOS>ATOM
      1 C4           0.0000     0.0000     0.0000 cp         1 6LP       0.544800
      2 C5           1.3960     0.0000     0.0000 ca         1 6LP      -0.414600
      3 C6           2.0560     0.0000     1.2170 ca         1 6LP       0.507200
      4 N1           1.3490    -0.0010     2.3360 nb         1 6LP      -0.775000
      5 N3          -0.6450    -0.0010     1.1640 nb         1 6LP      -0.812000
      6 CAU         -0.3240     0.6440     5.8440 ca         1 6LP      -0.153000
      7 CAT          0.3810     0.5400     7.0290 ca         1 6LP       0.042400
      8 ClAV        -0.1750     1.3780     8.4450 cl         1 6LP      -0.098400
      9 CAS          1.5280    -0.2300     7.0880 ca         1 6LP      -0.127000
     10 CAR          1.9740    -0.8990     5.9620 ca         1 6LP      -0.105000
     11 CAQ          1.2750    -0.8000     4.7760 ca         1 6LP      -0.112000
     12 CAP          0.1210    -0.0280     4.7140 ca         1 6LP       0.153600
     13 C2           0.0240    -0.0000     2.3060 ca         1 6LP       0.947900
     14 CAF         -0.7540     0.0060    -1.2780 cp         1 6LP      -0.064500
     15 CAE         -2.1480     0.0120    -1.2870 ca         1 6LP      -0.282300
     16 CAG         -0.0840     0.0120    -2.5060 ca         1 6LP      -0.268300
     17 CAH         -0.8180     0.0180    -3.6730 ca         1 6LP       0.474200
     18 NAI         -2.1380     0.0180    -3.6460 nb         1 6LP      -0.736000
     19 CAD         -2.8130     0.0170    -2.5070 ca         1 6LP       0.681200
     20 NAC         -4.2030     0.0230    -2.5330 nu         1 6LP      -0.932900
     21 CAB         -4.9590     0.0220    -1.2790 c3         1 6LP       0.230800
     22 CAA         -6.4580     0.0280    -1.5850 c3         1 6LP       0.072800
     23 NAX         -7.2150     0.0280    -0.3270 nz         1 6LP      -0.806600
     24 H1           1.9510     0.0000    -0.9310 ha         1 6LP       0.154000
     25 H2           3.1380    -0.0000     1.2530 h4         1 6LP       0.043100
     26 H3          -1.2230     1.2470     5.7980 ha         1 6LP       0.141000
     27 H4           2.0790    -0.3090     8.0180 ha         1 6LP       0.151000
     28 H5           2.8730    -1.5010     6.0120 ha         1 6LP       0.146000
     29 H6           1.6240    -1.3250     3.8950 ha         1 6LP       0.161000
     30 H7          -1.6780    -0.0030     3.5590 hn         1 6LP       0.466800
     31 H8          -2.7040     0.0110    -0.3570 ha         1 6LP       0.143000
     32 H9           0.9990     0.0120    -2.5400 ha         1 6LP       0.156000
     33 H10         -0.3040     0.0210    -4.6270 h4         1 6LP       0.042100
     34 H11         -4.6880     0.0280    -3.4090 hn         1 6LP       0.459800
     35 H12         -4.7050     0.9030    -0.7030 h1         1 6LP       0.058700
     36 H13         -4.7110    -0.8650    -0.7080 h1         1 6LP       0.058700
     37 H14         -6.7130    -0.8540    -2.1600 hx         1 6LP       0.119700
     38 H15         -6.7060     0.9150    -2.1560 hx         1 6LP       0.119700
     39 H16         -8.1960     0.0320    -0.5280 hn         1 6LP       0.461800
     40 H17         -6.9860    -0.7910     0.2000 hn         1 6LP       0.461800
     41 NAO         -0.6780    -0.0000     3.5000 nu         1 6LP      -0.771300
     42 HAX3        -6.9800     0.8430     0.2040 hn         1 6LP       0.461800
@<TRIPOS>BOND
     1     8     7 1
     2     7     9 ar
     3     7     6 ar
     4     9    10 ar
     5     6    12 ar
     6    10    11 ar
     7    12    11 ar
     8    12    41 1
     9     3     4 ar
    10     3     2 ar
    11     4    13 ar
    12    16    17 ar
    13    16    14 ar
    14     2     1 ar
    15    13    41 1
    16    13     5 ar
    17    17    18 ar
    18     1     5 ar
    19     1    14 1
    20    14    15 ar
    21    18    19 ar
    22    23    22 1
    23    15    19 ar
    24    19    20 1
    25    21    22 1
    26    21    20 1
    27     2    24 1
    28     3    25 1
    29     6    26 1
    30     9    27 1
    31    10    28 1
    32    11    29 1
    33    41    30 1
    34    15    31 1
    35    16    32 1
    36    17    33 1
    37    20    34 1
    38    21    35 1
    39    21    36 1
    40    22    37 1
    41    22    38 1
    42    23    39 1
    43    23    40 1
    44    42    23 1
@<TRIPOS>SUBSTRUCTURE
     1 6LP         1 TEMP              0 ****  ****    0 ROOT
