@<TRIPOS>MOLECULE
6LQ
   71    75     1     0     0
SMALL
bcc


@<TRIPOS>ATOM
      1 C1           0.0000     0.0000     0.0000 c3         1 6LQ       0.188100
      2 N2           1.4690     0.0000     0.0000 n3         1 6LQ      -0.538600
      3 C3           1.9960     0.0000     1.3720 c3         1 6LQ       0.132800
      4 C4           3.5160     0.1820     1.3310 c3         1 6LQ       0.241800
      5 N5           4.0880    -0.8440     0.4470 n3         1 6LQ      -0.534500
      6 C6           3.5170    -0.9970    -0.9000 c3         1 6LQ       0.241800
      7 C7           1.9960    -1.1330    -0.7720 c3         1 6LQ       0.132800
      8 S8           5.3390    -1.8030     0.9530 sy         1 6LQ       1.055200
      9 O9           5.9980    -2.2550    -0.2200 o          1 6LQ      -0.587800
     10 O10          5.9990    -1.0870     1.9890 o          1 6LQ      -0.587800
     11 C11          4.6310    -3.2290     1.7090 ca         1 6LQ      -0.173500
     12 C12          4.3550    -4.3480     0.9430 ca         1 6LQ       0.014500
     13 C13          3.8010    -5.4670     1.5290 ca         1 6LQ      -0.147500
     14 C14          3.5200    -5.4700     2.8940 cp         1 6LQ       0.052000
     15 C15          3.8010    -4.3410     3.6600 ca         1 6LQ      -0.147500
     16 C16          4.3600    -3.2290     3.0650 ca         1 6LQ       0.014500
     17 C17          2.9240    -6.6710     3.5290 cp         1 6LQ      -0.254300
     18 C18          2.6410    -6.6800     4.8950 ca         1 6LQ       0.012000
     19 C19          2.0800    -7.8340     5.4480 ca         1 6LQ      -0.368900
     20 C20          1.8250    -8.9340     4.6100 ca         1 6LQ       0.570200
     21 N21          2.1120    -8.8780     3.3170 nb         1 6LQ      -0.659000
     22 C22          2.6350    -7.8020     2.7670 ca         1 6LQ       0.495200
     23 N23          1.2700   -10.0850     5.1380 nv         1 6LQ      -0.510500
     24 C24          1.7610    -7.8980     6.8850 c          1 6LQ       0.610700
     25 O25          1.1800    -8.8660     7.3370 o          1 6LQ      -0.664100
     26 N26          2.1140    -6.8830     7.6990 ns         1 6LQ      -0.023100
     27 C27          1.8910    -6.9830     9.0770 ca         1 6LQ      -0.191700
     28 C28          0.7780    -7.6540     9.5650 ca         1 6LQ       0.399200
     29 N29          0.5640    -7.7500    10.8620 nb         1 6LQ      -0.566000
     30 C30          1.3890    -7.2170    11.7420 ca         1 6LQ       0.391200
     31 C31          2.5190    -6.5330    11.3340 ca         1 6LQ      -0.206300
     32 C32          2.7850    -6.4140     9.9800 ca         1 6LQ      -0.089300
     33 C33          4.0090    -5.6810     9.4960 c3         1 6LQ       0.207100
     34 N34          3.6350    -4.3220     9.0800 n3         1 6LQ      -0.557600
     35 C35          4.7540    -3.6550     8.3800 c3         1 6LQ       0.150300
     36 C36          4.6830    -2.1590     8.7390 c3         1 6LQ      -0.028400
     37 C37          3.4810    -2.0310     9.7040 c3         1 6LQ      -0.028400
     38 C38          3.3280    -3.4700    10.2580 c3         1 6LQ       0.150300
     39 H11C        -0.3610     0.0490    -1.0200 h1         1 6LQ       0.000367
     40 H12C        -0.3610    -0.9080     0.4680 h1         1 6LQ       0.000367
     41 H13C        -0.3610     0.8590     0.5530 h1         1 6LQ       0.000367
     42 H31C         1.5500     0.8150     1.9290 h1         1 6LQ       0.012200
     43 H32C         1.7590    -0.9430     1.8490 h1         1 6LQ       0.012200
     44 H71C         1.7590    -2.0590    -0.2610 h1         1 6LQ       0.012200
     45 H72C         1.5500    -1.1350    -1.7590 h1         1 6LQ       0.012200
     46 H41C         3.7540     1.1670     0.9460 h1         1 6LQ       0.028450
     47 H42C         3.9220     0.0690     2.3290 h1         1 6LQ       0.028450
     48 H61C         3.7540    -0.1240    -1.4960 h1         1 6LQ       0.028450
     49 H62C         3.9230    -1.8860    -1.3680 h1         1 6LQ       0.028450
     50 H12          4.5730    -4.3450    -0.1180 ha         1 6LQ       0.121000
     51 H16          4.5790    -2.3500     3.6590 ha         1 6LQ       0.121000
     52 H13          3.5840    -6.3430     0.9290 ha         1 6LQ       0.115000
     53 H15          3.5870    -4.3380     4.7220 ha         1 6LQ       0.115000
     54 H18          2.8510    -5.8140     5.5110 ha         1 6LQ       0.113000
     55 H22          2.8540    -7.8000     1.7060 h4         1 6LQ      -0.015900
     56 H231         1.4880   -10.3600     6.0750 hn         1 6LQ       0.293300
     57 H232         0.6730   -10.6570     4.5740 hn         1 6LQ       0.293300
     58 H26          2.4720    -6.0330     7.3120 hn         1 6LQ       0.188500
     59 H28          0.0780    -8.1050     8.8720 h4         1 6LQ       0.022100
     60 H30          1.1770    -7.3150    12.8000 h4         1 6LQ      -0.019900
     61 H31          3.1910    -6.1010    12.0650 ha         1 6LQ       0.114000
     62 H331         4.7370    -5.6250    10.2970 h1         1 6LQ       0.018200
     63 H332         4.4380    -6.2110     8.6540 h1         1 6LQ       0.018200
     64 H351         4.6470    -3.7820     7.3090 h1         1 6LQ       0.014700
     65 H352         5.6970    -4.0690     8.7140 h1         1 6LQ       0.014700
     66 H381         2.3140    -3.6420    10.5980 h1         1 6LQ       0.014700
     67 H382         4.0420    -3.6500    11.0530 h1         1 6LQ       0.014700
     68 H361         5.5950    -1.8490     9.2350 hc         1 6LQ       0.021200
     69 H362         4.5120    -1.5680     7.8480 hc         1 6LQ       0.021200
     70 H371         3.7060    -1.3360    10.5040 hc         1 6LQ       0.021200
     71 H372         2.5900    -1.7320     9.1660 hc         1 6LQ       0.021200
@<TRIPOS>BOND
     1     1     2 1   
     2     1    39 1   
     3     1    40 1   
     4     1    41 1   
     5     2     3 1   
     6     2     7 1   
     7     3     4 1   
     8     3    42 1   
     9     3    43 1   
    10     4     5 1   
    11     4    46 1   
    12     4    47 1   
    13     5     6 1   
    14     5     8 1   
    15     6     7 1   
    16     6    48 1   
    17     6    49 1   
    18     7    44 1   
    19     7    45 1   
    20     8     9 2   
    21     8    10 2   
    22     8    11 1   
    23    11    12 ar  
    24    11    16 ar  
    25    12    13 ar  
    26    12    50 1   
    27    13    14 ar  
    28    13    52 1   
    29    14    15 ar  
    30    14    17 1   
    31    15    16 ar  
    32    15    53 1   
    33    16    51 1   
    34    17    18 ar  
    35    17    22 ar  
    36    18    19 ar  
    37    18    54 1   
    38    19    20 ar  
    39    19    24 1   
    40    20    21 ar  
    41    20    23 1   
    42    21    22 ar  
    43    22    55 1   
    44    23    56 1   
    45    23    57 1   
    46    24    25 2   
    47    24    26 1   
    48    26    27 1   
    49    26    58 1   
    50    27    28 ar  
    51    27    32 ar  
    52    28    29 ar  
    53    28    59 1   
    54    29    30 ar  
    55    30    31 ar  
    56    30    60 1   
    57    31    32 ar  
    58    31    61 1   
    59    32    33 1   
    60    33    34 1   
    61    33    62 1   
    62    33    63 1   
    63    34    35 1   
    64    34    38 1   
    65    35    36 1   
    66    35    64 1   
    67    35    65 1   
    68    36    37 1   
    69    36    68 1   
    70    36    69 1   
    71    37    38 1   
    72    37    70 1   
    73    37    71 1   
    74    38    66 1   
    75    38    67 1   
@<TRIPOS>SUBSTRUCTURE
     1 6LQ         1 TEMP              0 ****  ****    0 ROOT
