@<TRIPOS>MOLECULE
molecule
   15    15     1     0     0
SMALL
bcc


@<TRIPOS>ATOM
      1 N4           0.0000     0.0000     0.0000 n7         1 6LR      -0.817200
      2 C3           1.4710     0.0000     0.0000 c3         1 6LR       0.117800
      3 C2           1.9760     0.0000     1.4450 c3         1 6LR       0.139400
      4 C5          -0.5200    -1.1750     0.7160 c3         1 6LR       0.117800
      5 C6           0.0040    -1.1630     2.1530 c3         1 6LR       0.139400
      6 O1           1.4350    -1.1310     2.1330 os         1 6LR      -0.425600
      7 H1          -0.3340    -0.0090    -0.9440 hn         1 6LR       0.355800
      8 H3           1.8310    -0.8860    -0.5080 h1         1 6LR       0.040200
      9 H4           1.8310     0.8860    -0.5080 h1         1 6LR       0.040200
     10 H5           1.6560     0.9100     1.9390 h1         1 6LR       0.053200
     11 H6           3.0570    -0.0590     1.4490 h1         1 6LR       0.053200
     12 H7          -0.1870    -2.0770     0.2170 h1         1 6LR       0.040200
     13 H8          -1.6030    -1.1400     0.7270 h1         1 6LR       0.040200
     14 H9          -0.3690    -0.2850     2.6660 h1         1 6LR       0.053200
     15 H10         -0.3290    -2.0570     2.6660 h1         1 6LR       0.053200
@<TRIPOS>BOND
     1     5     6 1
     2     5     4 1
     3     6     3 1
     4     4     1 1
     5     3     2 1
     6     1     2 1
     7     1     7 1
     8     2     8 1
     9     2     9 1
    10     3    10 1
    11     3    11 1
    12     4    12 1
    13     4    13 1
    14     5    14 1
    15     5    15 1
@<TRIPOS>SUBSTRUCTURE
     1 6LR         1 TEMP              0 ****  ****    0 ROOT
