@<TRIPOS>MOLECULE
molecule
   44    44     1     0     0
SMALL
bcc


@<TRIPOS>ATOM
      1 O3           0.0000     0.0000     0.0000 oh         1 6LS      -0.609800
      2 C4           1.9430     1.2550    -0.7130 c3         1 6LS       0.115100
      3 C5           3.4720     1.2850    -0.6380 c3         1 6LS       0.148100
      4 O4           1.5320     1.2280    -2.0810 oh         1 6LS      -0.602800
      5 C6           3.9890     2.5660    -1.2950 c3         1 6LS       0.150400
      6 O5           3.8810     1.2530     0.7310 os         1 6LS      -0.425600
      7 O6           5.4180     2.5420    -1.3290 oh         1 6LS      -0.603800
      8 CAR         11.3450    -5.4570    -0.8410 c3         1 6LS      -0.092100
      9 CAQ          9.8290    -5.3070    -0.9820 c3         1 6LS      -0.084400
     10 CAP          9.3700    -4.0430    -0.2540 c3         1 6LS      -0.081400
     11 CAO          7.8540    -3.8940    -0.3960 c3         1 6LS      -0.080400
     12 CAN          7.3950    -2.6300     0.3330 c3         1 6LS      -0.080400
     13 CAM          5.8790    -2.4800     0.1900 c3         1 6LS      -0.081400
     14 CAL          5.4200    -1.2160     0.9190 c3         1 6LS       0.135400
     15 O1           4.0040    -1.0770     0.7870 os         1 6LS      -0.453600
     16 C1           3.4710     0.0790     1.4350 c3         1 6LS       0.335900
     17 C2           1.9420     0.0000     1.4430 c3         1 6LS      -0.119400
     18 C3           1.4290     0.0000     0.0000 c3         1 6LS       0.130100
     19 H32         -0.3140    -0.8590    -0.2290 ho         1 6LS       0.409000
     20 H41          1.5410     2.1350    -0.2270 h1         1 6LS       0.051700
     21 H5           3.8740     0.4210    -1.1540 h1         1 6LS       0.076700
     22 H42          0.7940     1.8030    -2.1990 ho         1 6LS       0.411000
     23 H62          3.6560     3.4250    -0.7240 h1         1 6LS       0.034200
     24 H61          3.6050     2.6340    -2.3060 h1         1 6LS       0.034200
     25 H63          5.7350     3.3100    -1.7740 ho         1 6LS       0.401000
     26 HAR         11.6700    -6.3510    -1.3590 hc         1 6LS       0.032367
     27 HAS         11.6040    -5.5340     0.2080 hc         1 6LS       0.032367
     28 HAT         11.8350    -4.5920    -1.2710 hc         1 6LS       0.032367
     29 HAQ          9.3390    -6.1710    -0.5500 hc         1 6LS       0.040200
     30 HAU          9.5700    -5.2340    -2.0320 hc         1 6LS       0.040200
     31 HAV          9.6290    -4.1170     0.7950 hc         1 6LS       0.041200
     32 HAP          9.8590    -3.1800    -0.6870 hc         1 6LS       0.041200
     33 HAO          7.5950    -3.8200    -1.4450 hc         1 6LS       0.042700
     34 HAW          7.3640    -4.7580     0.0360 hc         1 6LS       0.042700
     35 HAX          7.6540    -2.7040     1.3820 hc         1 6LS       0.043200
     36 HAN          7.8860    -1.7660    -0.0990 hc         1 6LS       0.043200
     37 HAM          5.6200    -2.4060    -0.8590 hc         1 6LS       0.051200
     38 HAY          5.3880    -3.3440     0.6220 hc         1 6LS       0.051200
     39 HAZ          5.6790    -1.2900     1.9680 h1         1 6LS       0.035700
     40 HAL          5.9100    -0.3520     0.4860 h1         1 6LS       0.035700
     41 H1           3.8330     0.1270     2.4550 h2         1 6LS       0.075700
     42 H22          1.5390     0.8570     1.9690 hc         1 6LS       0.068200
     43 H21          1.6310    -0.9130     1.9360 hc         1 6LS       0.068200
     44 H31          1.7950    -0.8810    -0.5130 h1         1 6LS       0.064700
@<TRIPOS>BOND
     1     8     9 1
     2     9    10 1
     3    10    11 1
     4    11    12 1
     5    12    13 1
     6    13    14 1
     7    14    15 1
     8    15    16 1
     9    16     6 1
    10    16    17 1
    11     6     3 1
    12     3     5 1
    13     3     2 1
    14    17    18 1
    15    18     2 1
    16    18     1 1
    17     5     7 1
    18     2     4 1
    19     1    19 1
    20     2    20 1
    21     3    21 1
    22     4    22 1
    23     5    23 1
    24     5    24 1
    25     7    25 1
    26     8    26 1
    27     8    27 1
    28     8    28 1
    29     9    29 1
    30     9    30 1
    31    10    31 1
    32    10    32 1
    33    11    33 1
    34    11    34 1
    35    12    35 1
    36    12    36 1
    37    13    37 1
    38    13    38 1
    39    14    39 1
    40    14    40 1
    41    16    41 1
    42    17    42 1
    43    17    43 1
    44    18    44 1
@<TRIPOS>SUBSTRUCTURE
     1 6LS         1 TEMP              0 ****  ****    0 ROOT
