@<TRIPOS>MOLECULE
molecule
   66    70     1     0     0
SMALL
bcc


@<TRIPOS>ATOM
      1 C1           0.0000     0.0000     0.0000 cc         1 6LT      -0.247900
      2 C3          -2.0750     0.5210     0.4490 cc         1 6LT       0.394400
      3 C11         -1.1870    -0.2570     4.7850 ca         1 6LT      -0.166000
      4 C12         -1.2610     0.3210     3.5210 cp         1 6LT       0.007000
      5 C14         -2.4090     0.0160     2.6310 cp         1 6LT      -0.065000
      6 C15          1.5060     0.0000     0.0000 c3         1 6LT      -0.003100
      7 C16          2.0050     0.0000     1.4490 c3         1 6LT      -0.079400
      8 C17          2.1300     1.4380     1.9430 c3         1 6LT      -0.183400
      9 C18          1.0520     2.3180     1.3160 c3         1 6LT       0.134100
     10 C20         -2.4060    -1.1440     1.8590 ca         1 6LT      -0.130500
     11 C21         -3.4760    -1.4230     1.0330 ca         1 6LT      -0.095500
     12 C22         -4.5490    -0.5530     0.9700 ca         1 6LT      -0.131000
     13 C23         -4.5580     0.5990     1.7340 ca         1 6LT      -0.095500
     14 C24         -3.4960     0.8860     2.5670 ca         1 6LT      -0.130500
     15 C25          0.9250    -0.1470     7.7460 c          1 6LT       0.709700
     16 C26          1.0880    -0.8410     9.0340 cc         1 6LT      -0.212900
     17 C28          1.7850    -0.3860    10.1390 cd         1 6LT      -0.198300
     18 C29          1.6500    -1.3900    11.1010 cd         1 6LT       0.213600
     19 N2          -0.7960     0.8180     0.7550 na         1 6LT      -0.181900
     20 N4          -2.0810    -0.4420    -0.4330 nd         1 6LT      -0.732000
     21 C5          -0.8140    -0.7790    -0.7290 cd         1 6LT       0.311200
     22 C6          -0.3350     1.8150     1.7260 c3         1 6LT       0.100300
     23 C7          -0.2560     1.1870     3.0940 ca         1 6LT      -0.117300
     24 C8           0.8100     1.4720     3.9240 ca         1 6LT      -0.117000
     25 C9           0.8840     0.8990     5.1790 ca         1 6LT      -0.175000
     26 C10         -0.1150     0.0380     5.6150 ca         1 6LT       0.060600
     27 N13         -0.0350    -0.5400     6.8860 ns         1 6LT      -0.475100
     28 O19          1.2190     3.6650     1.7630 oh         1 6LT      -0.604800
     29 O27          1.6560     0.7810     7.4580 o          1 6LT      -0.573100
     30 N30          0.9270    -2.3490    10.5810 nc         1 6LT      -0.470800
     31 N31          0.5770    -2.0590     9.3790 na         1 6LT       0.156400
     32 C32         -0.2360    -2.9120     8.5080 c3         1 6LT       0.050000
     33 C33          2.2330    -1.3720    12.4910 c3         1 6LT       0.400600
     34 C34          0.3160    -4.3380     8.5300 c3         1 6LT      -0.108100
     35 C35         -1.6830    -2.9160     9.0060 c3         1 6LT      -0.108100
     36 F36          2.3260    -0.0510    12.9400 f          1 6LT      -0.231300
     37 F37          1.4060    -2.1020    13.3520 f          1 6LT      -0.231300
     38 H1          -2.9530     0.9950     0.8730 h5         1 6LT       0.099100
     39 H2          -1.9670    -0.9280     5.1220 ha         1 6LT       0.134000
     40 H3           1.8670    -0.8870    -0.5070 hc         1 6LT       0.052700
     41 H4           1.8680     0.8870    -0.5070 hc         1 6LT       0.052700
     42 H5           1.2990    -0.5350     2.0720 hc         1 6LT       0.052700
     43 H6           2.9740    -0.4820     1.4950 hc         1 6LT       0.052700
     44 H7           3.1060     1.8230     1.6730 hc         1 6LT       0.091700
     45 H8           2.0200     1.4540     3.0210 hc         1 6LT       0.091700
     46 H9           1.1420     2.2790     0.2370 h1         1 6LT       0.057700
     47 H10         -1.5660    -1.8270     1.9070 ha         1 6LT       0.140000
     48 H11         -3.4750    -2.3250     0.4320 ha         1 6LT       0.139000
     49 H12         -5.3860    -0.7750     0.3190 ha         1 6LT       0.136000
     50 H13         -5.4020     1.2760     1.6820 ha         1 6LT       0.139000
     51 H14         -3.5040     1.7900     3.1650 ha         1 6LT       0.140000
     52 H15          2.3220     0.5500    10.2380 ha         1 6LT       0.187000
     53 H16         -0.5050    -1.5470    -1.4290 h4         1 6LT       0.035100
     54 H17         -1.0280     2.6460     1.7440 h1         1 6LT       0.089700
     55 H18          1.5910     2.1440     3.5890 ha         1 6LT       0.199000
     56 H19          1.7220     1.1270     5.8270 ha         1 6LT       0.203000
     57 H20         -0.7260    -1.2030     7.1780 hn         1 6LT       0.332500
     58 H21          1.3510     4.2290     1.0190 ho         1 6LT       0.408000
     59 H22         -0.2050    -2.5280     7.4950 h1         1 6LT       0.077700
     60 H23          3.2200    -1.8180    12.4740 h2         1 6LT       0.079700
     61 H24          1.3780    -4.3170     8.3190 hc         1 6LT       0.057033
     62 H25         -0.1900    -4.9330     7.7790 hc         1 6LT       0.057033
     63 H26          0.1510    -4.7740     9.5080 hc         1 6LT       0.057033
     64 H27         -2.0000    -1.8990     9.2040 hc         1 6LT       0.057033
     65 H28         -2.3240    -3.3540     8.2500 hc         1 6LT       0.057033
     66 H29         -1.7490    -3.4980     9.9170 hc         1 6LT       0.057033
@<TRIPOS>BOND
     1    36    33 1   
     2    33    37 1   
     3    33    18 1   
     4    30    18 2   
     5    30    31 1   
     6    18    17 1   
     7    34    32 1   
     8    35    32 1   
     9    31    32 1   
    10    31    16 1   
    11    17    16 2   
    12    16    15 1   
    13    15    29 2   
    14    15    27 1   
    15    27    26 1   
    16    26     3 ar  
    17    26    25 ar  
    18     3     4 ar  
    19    25    24 ar  
    20     4     5 1   
    21     4    23 ar  
    22    24    23 ar  
    23    14     5 ar  
    24    14    13 ar  
    25     5    10 ar  
    26    13    12 ar  
    27    23    22 1   
    28    10    11 ar  
    29    12    11 ar  
    30    22     9 1   
    31    22    19 1   
    32     2    19 1   
    33     2    20 2   
    34     9    28 1   
    35     9     8 1   
    36    19     1 1   
    37    20    21 1   
    38     8     7 1   
    39     1    21 2   
    40     1     6 1   
    41     6     7 1   
    42     2    38 1   
    43     3    39 1   
    44     6    40 1   
    45     6    41 1   
    46     7    42 1   
    47     7    43 1   
    48     8    44 1   
    49     8    45 1   
    50     9    46 1   
    51    10    47 1   
    52    11    48 1   
    53    12    49 1   
    54    13    50 1   
    55    14    51 1   
    56    17    52 1   
    57    21    53 1   
    58    22    54 1   
    59    24    55 1   
    60    25    56 1   
    61    27    57 1   
    62    28    58 1   
    63    32    59 1   
    64    33    60 1   
    65    34    61 1   
    66    34    62 1   
    67    34    63 1   
    68    35    64 1   
    69    35    65 1   
    70    35    66 1   
@<TRIPOS>SUBSTRUCTURE
     1 6LT         1 TEMP              0 ****  ****    0 ROOT
