@<TRIPOS>MOLECULE
6LT
   66    70     1     0     0
SMALL
bcc


@<TRIPOS>ATOM
      1 C1           0.0000     0.0000     0.0000 cc         1 6LT      -0.431900
      2 C3          -2.0750     0.5210     0.4490 cc         1 6LT       0.173400
      3 C11         -1.1870    -0.2570     4.7850 ca         1 6LT      -0.134000
      4 C12         -1.2610     0.3210     3.5210 cp         1 6LT       0.010000
      5 C14         -2.4090     0.0160     2.6310 cp         1 6LT      -0.068000
      6 C15          1.5060     0.0000     0.0000 c3         1 6LT       0.075900
      7 C16          2.0050     0.0000     1.4490 c3         1 6LT      -0.028400
      8 C17          2.1300     1.4380     1.9430 c3         1 6LT      -0.186400
      9 C18          1.0520     2.3180     1.3160 c3         1 6LT       0.177100
     10 C20         -2.4060    -1.1440     1.8590 ca         1 6LT      -0.113000
     11 C21         -3.4760    -1.4230     1.0330 ca         1 6LT      -0.061000
     12 C22         -4.5490    -0.5530     0.9700 ca         1 6LT      -0.099000
     13 C23         -4.5580     0.5990     1.7340 ca         1 6LT      -0.061000
     14 C24         -3.4960     0.8860     2.5670 ca         1 6LT      -0.113000
     15 C25          0.9250    -0.1470     7.7460 c          1 6LT       0.634700
     16 C26          1.0880    -0.8410     9.0340 cc         1 6LT      -0.409900
     17 C28          1.7850    -0.3860    10.1390 cd         1 6LT      -0.148300
     18 C29          1.6500    -1.3900    11.1010 cd         1 6LT       0.193600
     19 N2          -0.7960     0.8180     0.7550 na         1 6LT       0.303100
     20 N4          -2.0810    -0.4420    -0.4330 nd         1 6LT      -0.664000
     21 C5          -0.8140    -0.7790    -0.7290 cd         1 6LT       0.326200
     22 C6          -0.3350     1.8150     1.7260 c3         1 6LT      -0.012700
     23 C7          -0.2560     1.1870     3.0940 ca         1 6LT      -0.114300
     24 C8           0.8100     1.4720     3.9240 ca         1 6LT      -0.111000
     25 C9           0.8840     0.8990     5.1790 ca         1 6LT      -0.165000
     26 C10         -0.1150     0.0380     5.6150 ca         1 6LT      -0.082400
     27 N13         -0.0350    -0.5400     6.8860 ns         1 6LT      -0.053100
     28 O19          1.2190     3.6650     1.7630 oh         1 6LT      -0.580800
     29 O27          1.6560     0.7810     7.4580 o          1 6LT      -0.611100
     30 N30          0.9270    -2.3490    10.5810 nc         1 6LT      -0.578800
     31 N31          0.5770    -2.0590     9.3790 na         1 6LT       0.621400
     32 C32         -0.2360    -2.9120     8.5080 c3         1 6LT      -0.098000
     33 C33          2.2330    -1.3720    12.4910 c3         1 6LT       0.407600
     34 C34          0.3160    -4.3380     8.5300 c3         1 6LT      -0.007600
     35 C35         -1.6830    -2.9160     9.0060 c3         1 6LT      -0.007600
     36 F36          2.3260    -0.0510    12.9400 f          1 6LT      -0.219300
     37 F37          1.4060    -2.1020    13.3520 f          1 6LT      -0.219300
     38 H1          -2.9530     0.9950     0.8730 h5         1 6LT       0.088100
     39 H2          -1.9670    -0.9280     5.1220 ha         1 6LT       0.112000
     40 H3           1.8670    -0.8870    -0.5070 hc         1 6LT       0.022200
     41 H4           1.8680     0.8870    -0.5070 hc         1 6LT       0.022200
     42 H5           1.2990    -0.5350     2.0720 hc         1 6LT       0.025200
     43 H6           2.9740    -0.4820     1.4950 hc         1 6LT       0.025200
     44 H7           3.1060     1.8230     1.6730 hc         1 6LT       0.080700
     45 H8           2.0200     1.4540     3.0210 hc         1 6LT       0.080700
     46 H9           1.1420     2.2790     0.2370 h1         1 6LT       0.029700
     47 H10         -1.5660    -1.8270     1.9070 ha         1 6LT       0.115500
     48 H11         -3.4750    -2.3250     0.4320 ha         1 6LT       0.110500
     49 H12         -5.3860    -0.7750     0.3190 ha         1 6LT       0.109000
     50 H13         -5.4020     1.2760     1.6820 ha         1 6LT       0.110500
     51 H14         -3.5040     1.7900     3.1650 ha         1 6LT       0.115500
     52 H15          2.3220     0.5500    10.2380 ha         1 6LT       0.157000
     53 H16         -0.5050    -1.5470    -1.4290 h4         1 6LT       0.001100
     54 H17         -1.0280     2.6460     1.7440 h1         1 6LT       0.063700
     55 H18          1.5910     2.1440     3.5890 ha         1 6LT       0.186000
     56 H19          1.7220     1.1270     5.8270 ha         1 6LT       0.194000
     57 H20         -0.7260    -1.2030     7.1780 hn         1 6LT       0.186500
     58 H21          1.3510     4.2290     1.0190 ho         1 6LT       0.394000
     59 H22         -0.2050    -2.5280     7.4950 h1         1 6LT       0.056700
     60 H23          3.2200    -1.8180    12.4740 h2         1 6LT       0.032700
     61 H24          1.3780    -4.3170     8.3190 hc         1 6LT       0.022533
     62 H25         -0.1900    -4.9330     7.7790 hc         1 6LT       0.022533
     63 H26          0.1510    -4.7740     9.5080 hc         1 6LT       0.022533
     64 H27         -2.0000    -1.8990     9.2040 hc         1 6LT       0.022533
     65 H28         -2.3240    -3.3540     8.2500 hc         1 6LT       0.022533
     66 H29         -1.7490    -3.4980     9.9170 hc         1 6LT       0.022533
@<TRIPOS>BOND
     1     1     6 1   
     2     1    19 1   
     3     1    21 2   
     4     2    19 1   
     5     2    20 2   
     6     2    38 1   
     7     3     4 ar  
     8     3    26 ar  
     9     3    39 1   
    10     4     5 1   
    11     4    23 ar  
    12     5    10 ar  
    13     5    14 ar  
    14     6     7 1   
    15     6    40 1   
    16     6    41 1   
    17     7     8 1   
    18     7    42 1   
    19     7    43 1   
    20     8     9 1   
    21     8    44 1   
    22     8    45 1   
    23     9    22 1   
    24     9    28 1   
    25     9    46 1   
    26    10    11 ar  
    27    10    47 1   
    28    11    12 ar  
    29    11    48 1   
    30    12    13 ar  
    31    12    49 1   
    32    13    14 ar  
    33    13    50 1   
    34    14    51 1   
    35    15    16 1   
    36    15    27 1   
    37    15    29 2   
    38    16    17 2   
    39    16    31 1   
    40    17    18 1   
    41    17    52 1   
    42    18    30 2   
    43    18    33 1   
    44    19    22 1   
    45    20    21 1   
    46    21    53 1   
    47    22    23 1   
    48    22    54 1   
    49    23    24 ar  
    50    24    25 ar  
    51    24    55 1   
    52    25    26 ar  
    53    25    56 1   
    54    26    27 1   
    55    27    57 1   
    56    28    58 1   
    57    30    31 1   
    58    31    32 1   
    59    32    34 1   
    60    32    35 1   
    61    32    59 1   
    62    33    36 1   
    63    33    37 1   
    64    33    60 1   
    65    34    61 1   
    66    34    62 1   
    67    34    63 1   
    68    35    64 1   
    69    35    65 1   
    70    35    66 1   
@<TRIPOS>SUBSTRUCTURE
     1 6LT         1 TEMP              0 ****  ****    0 ROOT
