@<TRIPOS>MOLECULE
6LU
   40    41     1     0     0
SMALL
bcc


@<TRIPOS>ATOM
      1 CAR          0.0000     0.0000     0.0000 c3         1 6LU       0.062700
      2 CAN          1.5070     0.0000     0.0000 ca         1 6LU      -0.063300
      3 CAO          2.1980     0.0000     1.1960 ca         1 6LU      -0.119000
      4 CAM          2.1980    -0.0060    -1.1990 ca         1 6LU      -0.098000
      5 CAL          3.5810    -0.0130    -1.2040 ca         1 6LU      -0.063300
      6 CAS          4.3280    -0.0240    -2.5120 c3         1 6LU       0.062700
      7 CAK          4.2770    -0.0120    -0.0110 ca         1 6LU      -0.119000
      8 CAJ          3.5860    -0.0010     1.1940 ca         1 6LU      -0.105400
      9 NAI          4.2890    -0.0010     2.4040 ns         1 6LU      -0.011100
     10 CAH          3.8060     0.6780     3.4640 c          1 6LU       0.549100
     11 OAP          2.7190     1.2200     3.3950 o          1 6LU      -0.675100
     12 NAG          4.5270     0.7560     4.6000 ns         1 6LU      -0.055100
     13 CAF          3.9860     1.3770     5.7310 ca         1 6LU       0.039600
     14 CAE          4.2830     0.8940     6.9990 ca         1 6LU      -0.143000
     15 CAD          3.7470     1.5110     8.1130 ca         1 6LU       0.033500
     16 CAC          2.9160     2.6050     7.9670 ca         1 6LU      -0.255500
     17 SAQ          2.2340     3.3870     9.3920 sy         1 6LU       0.931200
     18 OAT          1.0580     4.0570     8.9580 o          1 6LU      -0.497800
     19 OAU          2.2360     2.4120    10.4250 o          1 6LU      -0.497800
     20 NAV          3.2980     4.5670     9.8600 nz         1 6LU      -0.134500
     21 CAB          2.6180     3.0890     6.7060 ca         1 6LU       0.033500
     22 CAA          3.1550     2.4810     5.5880 ca         1 6LU      -0.143000
     23 H1          -0.3610    -0.6530     0.7860 hc         1 6LU       0.011367
     24 H2          -0.3610    -0.3540    -0.9580 hc         1 6LU       0.011367
     25 H3          -0.3610     1.0070     0.1720 hc         1 6LU       0.011367
     26 H4           1.6570     0.0090     2.1350 ha         1 6LU       0.125500
     27 H5           1.6540    -0.0040    -2.1360 ha         1 6LU       0.116000
     28 H6           3.6390     0.1740    -3.3230 hc         1 6LU       0.011367
     29 H7           4.7870    -0.9940    -2.6570 hc         1 6LU       0.011367
     30 H8           5.0960     0.7400    -2.4950 hc         1 6LU       0.011367
     31 H9           5.3600    -0.0150    -0.0150 ha         1 6LU       0.125500
     32 H10          5.1270    -0.5420     2.4960 hn         1 6LU       0.163500
     33 H11          5.4590     0.3930     4.6260 hn         1 6LU       0.177500
     34 H12          4.9350     0.0360     7.1140 ha         1 6LU       0.154000
     35 H13          3.9780     1.1350     9.1030 ha         1 6LU       0.123500
     36 H14          4.1860     4.1530    10.0660 hn         1 6LU       0.312467
     37 H15          2.9480     5.0280    10.6760 hn         1 6LU       0.312467
     38 H16          1.9680     3.9480     6.5950 ha         1 6LU       0.123500
     39 H17          2.9210     2.8590     4.6000 ha         1 6LU       0.154000
     40 HAV3         3.3920     5.2420     9.1270 hn         1 6LU       0.312467
@<TRIPOS>BOND
     1     1     2 1   
     2     1    23 1   
     3     1    24 1   
     4     1    25 1   
     5     2     3 ar  
     6     2     4 ar  
     7     3     8 ar  
     8     3    26 1   
     9     4     5 ar  
    10     4    27 1   
    11     5     6 1   
    12     5     7 ar  
    13     6    28 1   
    14     6    29 1   
    15     6    30 1   
    16     7     8 ar  
    17     7    31 1   
    18     8     9 1   
    19     9    10 1   
    20     9    32 1   
    21    10    11 2   
    22    10    12 1   
    23    12    13 1   
    24    12    33 1   
    25    13    14 ar  
    26    13    22 ar  
    27    14    15 ar  
    28    14    34 1   
    29    15    16 ar  
    30    15    35 1   
    31    16    17 1   
    32    16    21 ar  
    33    17    18 2   
    34    17    19 2   
    35    17    20 1   
    36    20    36 1   
    37    20    37 1   
    38    20    40 1   
    39    21    22 ar  
    40    21    38 1   
    41    22    39 1   
@<TRIPOS>SUBSTRUCTURE
     1 6LU         1 TEMP              0 ****  ****    0 ROOT
