@<TRIPOS>MOLECULE
molecule
   42    45     1     0     0
SMALL
bcc


@<TRIPOS>ATOM
      1 N1           0.0000     0.0000     0.0000 nv         1 6LV      -0.992800
      2 C2           1.3940     0.0000     0.0000 cc         1 6LV       0.794200
      3 N8           2.1540     0.0000     1.0740 nd         1 6LV      -0.605100
      4 N9           3.4850    -0.0010     0.6360 na         1 6LV      -0.013800
      5 C4           3.4330    -0.0020    -0.7330 cd         1 6LV       0.051700
      6 N3           2.1650    -0.0070    -1.0880 nc         1 6LV      -0.463300
      7 C10          4.6860    -0.0020     1.2770 cc         1 6LV       0.592800
      8 N11          5.8230    -0.0020     0.6500 nd         1 6LV      -0.696000
      9 C12          5.8990    -0.0030    -0.7030 ca         1 6LV       0.428600
     10 C13          7.1280    -0.0030    -1.3690 ca         1 6LV      -0.168300
     11 C14          7.1570    -0.0030    -2.7340 ca         1 6LV      -0.105000
     12 C7           5.9820    -0.0030    -3.4760 ca         1 6LV      -0.139000
     13 C6           4.7650    -0.0030    -2.8530 ca         1 6LV      -0.073000
     14 C5           4.7050    -0.0030    -1.4610 ca         1 6LV      -0.142300
     15 C15          4.6960    -0.0010     2.7840 c3         1 6LV      -0.075400
     16 C16          6.1200    -0.0010     3.2770 ca         1 6LV      -0.003300
     17 C23          6.7730     1.1960     3.5010 ca         1 6LV      -0.178500
     18 C22          8.0830     1.1980     3.9550 ca         1 6LV       0.177600
     19 O24          8.7250     2.3760     4.1760 os         1 6LV      -0.326400
     20 C25         10.0740     2.3030     4.6430 c3         1 6LV       0.129700
     21 C21          8.7390    -0.0020     4.1830 ca         1 6LV      -0.312000
     22 C18          8.0830    -1.2020     3.9580 ca         1 6LV       0.177600
     23 C17          6.7700    -1.1990     3.5080 ca         1 6LV      -0.178500
     24 O19          8.7230    -2.3800     4.1800 os         1 6LV      -0.326400
     25 C20         10.0710    -2.3070     4.6460 c3         1 6LV       0.129700
     26 H11         -0.5000     0.7950     0.3460 hn         1 6LV       0.448300
     27 H12         -0.5000    -0.7960    -0.3430 hn         1 6LV       0.448300
     28 H151         4.1880     0.8840     3.1480 hc         1 6LV       0.083700
     29 H152         4.1880    -0.8850     3.1490 hc         1 6LV       0.083700
     30 H13          8.0520    -0.0030    -0.8040 ha         1 6LV       0.154000
     31 H14          8.1120    -0.0030    -3.2470 ha         1 6LV       0.136000
     32 H7           6.0310    -0.0030    -4.5580 ha         1 6LV       0.137000
     33 H6           3.8540    -0.0030    -3.4380 ha         1 6LV       0.155000
     34 H23          6.2540     2.1330     3.3430 ha         1 6LV       0.144000
     35 H17          6.2560    -2.1360     3.3310 ha         1 6LV       0.144000
     36 H21          9.7630    -0.0020     4.5360 ha         1 6LV       0.139000
     37 H251        10.6790     1.7730     3.9170 h1         1 6LV       0.040367
     38 H252        10.4650     3.3050     4.7760 h1         1 6LV       0.040367
     39 H253        10.1010     1.7760     5.5890 h1         1 6LV       0.040367
     40 H201        10.6760    -1.7770     3.9200 h1         1 6LV       0.040367
     41 H202        10.0990    -1.7800     5.5920 h1         1 6LV       0.040367
     42 H203        10.4620    -3.3090     4.7790 h1         1 6LV       0.040367
@<TRIPOS>BOND
     1     1     2 1   
     2     2     3 2   
     3     2     6 1   
     4     3     4 1   
     5     4     5 1   
     6     4     7 1   
     7     5     6 2   
     8     5    14 1   
     9     7     8 2   
    10     7    15 1   
    11     8     9 1   
    12     9    10 ar  
    13     9    14 ar  
    14    10    11 ar  
    15    11    12 ar  
    16    12    13 ar  
    17    13    14 ar  
    18    15    16 1   
    19    16    17 ar  
    20    16    23 ar  
    21    17    18 ar  
    22    18    19 1   
    23    18    21 ar  
    24    19    20 1   
    25    21    22 ar  
    26    22    23 ar  
    27    22    24 1   
    28    24    25 1   
    29     1    26 1   
    30     1    27 1   
    31    15    28 1   
    32    15    29 1   
    33    10    30 1   
    34    11    31 1   
    35    12    32 1   
    36    13    33 1   
    37    17    34 1   
    38    23    35 1   
    39    21    36 1   
    40    20    37 1   
    41    20    38 1   
    42    20    39 1   
    43    25    40 1   
    44    25    41 1   
    45    25    42 1   
@<TRIPOS>SUBSTRUCTURE
     1 6LV         1 TEMP              0 ****  ****    0 ROOT
