@<TRIPOS>MOLECULE
molecule
   20    20     1     0     0
SMALL
bcc


@<TRIPOS>ATOM
      1 C3           0.0000     0.0000     0.0000 c3         1 6LW       0.100100
      2 C2           1.5470     0.0000     0.0000 c3         1 6LW       0.079800
      3 C1           1.9090     0.0000     1.4770 c2         1 6LW       0.549600
      4 O3          -0.5110    -1.1800    -0.6220 oh         1 6LW      -0.591800
      5 O4           0.8480     0.5640     2.1260 os         1 6LW      -0.398400
      6 O1           3.1740    -0.3660     3.4060 oh         1 6LW      -0.358500
      7 C4          -0.3380     0.0170     1.5100 c3         1 6LW       0.137100
      8 N1           2.9900    -0.4390     2.0040 n2         1 6LW      -0.453200
      9 O2           2.0490     1.1750    -0.6400 oh         1 6LW      -0.581800
     10 C5          -1.5460     0.9150     1.7800 c3         1 6LW       0.149400
     11 O5          -1.9090     0.8240     3.1590 oh         1 6LW      -0.594800
     12 H1          -0.3800     0.8910    -0.4850 h1         1 6LW       0.071700
     13 H2           1.9240    -0.8940    -0.4820 h1         1 6LW       0.076700
     14 H3          -0.8820    -0.9590    -1.4600 ho         1 6LW       0.412000
     15 H4           4.0370    -0.6740     3.6270 ho         1 6LW       0.424000
     16 H5          -0.5180    -0.9900     1.8680 h1         1 6LW       0.089700
     17 H6           2.7060     0.9330    -1.2710 ho         1 6LW       0.414000
     18 H7          -2.3780     0.5960     1.1650 h1         1 6LW       0.034200
     19 H8          -1.2930     1.9410     1.5410 h1         1 6LW       0.034200
     20 H9          -2.7150     1.2920     3.3040 ho         1 6LW       0.405000
@<TRIPOS>BOND
     1     4     1 1
     2     2     1 1
     3     2     9 1
     4     2     3 1
     5     1     7 1
     6     7     5 1
     7     7    10 1
     8     3     5 1
     9     3     8 2
    10     8     6 1
    11    10    11 1
    12     1    12 1
    13     2    13 1
    14     4    14 1
    15     6    15 1
    16     7    16 1
    17     9    17 1
    18    10    18 1
    19    10    19 1
    20    11    20 1
@<TRIPOS>SUBSTRUCTURE
     1 6LW         1 TEMP              0 ****  ****    0 ROOT
