@<TRIPOS>MOLECULE
molecule
   71    74     1     0     0
SMALL
bcc


@<TRIPOS>ATOM
      1 CAW          0.0000     0.0000     0.0000 ca         1 6LX      -0.104000
      2 CAX          1.3790     0.0000     0.0000 ca         1 6LX      -0.131000
      3 CAY          2.0740     0.0000     1.1970 ca         1 6LX      -0.043300
      4 CAZ          3.5810    -0.0010     1.1900 c3         1 6LX      -0.056800
      5 CAO          1.3920     0.0010     2.4000 ca         1 6LX      -0.131000
      6 CAN          0.0120     0.0020     2.4140 ca         1 6LX      -0.104000
      7 CAM         -0.6950     0.0010     1.2100 ca         1 6LX      -0.151600
      8 CAL         -2.1740     0.0080     1.2170 c          1 6LX       0.680700
      9 OAV         -2.7840     0.5450     0.3140 o          1 6LX      -0.574100
     10 NAK         -2.8440    -0.5820     2.2260 n          1 6LX      -0.480800
     11 CAU         -2.1230    -1.0470     3.4140 c3         1 6LX       0.052000
     12 CBC         -2.3730    -0.0790     4.5730 c3         1 6LX      -0.154400
     13 CBD         -1.6200    -0.5630     5.8130 c3         1 6LX       0.091800
     14 NBE         -1.8590     0.3650     6.9250 nz         1 6LX      -0.809600
     15 CAJ         -4.2970    -0.7600     2.1350 c3         1 6LX       0.164900
     16 CAB         -4.9900     0.2050     3.0990 c3         1 6LX      -0.096700
     17 CAA         -4.6280     1.6440     2.7270 c3         1 6LX      -0.092600
     18 CAC         -6.5060     0.0200     3.0040 c3         1 6LX      -0.092600
     19 CAI         -4.6520    -2.1780     2.5000 cc         1 6LX       0.093900
     20 OAH         -4.1220    -2.7050     3.6080 os         1 6LX      -0.236200
     21 CAG         -4.3890    -3.9660     4.0070 ca         1 6LX       0.148100
     22 CAF         -3.8210    -4.4850     5.1650 ca         1 6LX      -0.176000
     23 CAE         -4.1130    -5.7790     5.5490 ca         1 6LX       0.083400
     24 ClA         -3.4030    -6.4260     6.9950 cl         1 6LX      -0.082400
     25 CAP         -4.9680    -6.5680     4.7900 ca         1 6LX      -0.148000
     26 CAQ         -5.5360    -6.0730     3.6480 ca         1 6LX      -0.018000
     27 CAR         -5.2520    -4.7700     3.2460 ca         1 6LX      -0.218600
     28 CAS         -5.8420    -4.1950     2.0220 c          1 6LX       0.584900
     29 OBA         -6.6000    -4.8420     1.3180 o          1 6LX      -0.512100
     30 CAT         -5.4950    -2.8560     1.7000 cd         1 6LX      -0.235400
     31 CBB         -6.0640    -2.2000     0.4680 c3         1 6LX       0.023100
     32 CBG         -5.2660    -2.6220    -0.7380 ca         1 6LX      -0.100300
     33 CBF         -4.0870    -1.9690    -1.0500 ca         1 6LX      -0.120000
     34 CBI         -3.3560    -2.3560    -2.1570 ca         1 6LX      -0.125500
     35 CBJ         -3.8020    -3.3940    -2.9530 ca         1 6LX      -0.120000
     36 CBK         -4.9800    -4.0470    -2.6410 ca         1 6LX      -0.125500
     37 CBH         -5.7090    -3.6640    -1.5300 ca         1 6LX      -0.120000
     38 HAN         -0.5220     0.0030     3.3570 ha         1 6LX       0.143000
     39 HAO          1.9420     0.0020     3.3330 ha         1 6LX       0.139500
     40 HAZ1         3.9440     0.9750     1.4890 hc         1 6LX       0.055033
     41 HAZ2         3.9370    -0.2290     0.1930 hc         1 6LX       0.055033
     42 HAZ3         3.9450    -0.7500     1.8830 hc         1 6LX       0.055033
     43 HAX          1.9200    -0.0010    -0.9390 ha         1 6LX       0.139500
     44 HAW         -0.5430    -0.0000    -0.9380 ha         1 6LX       0.143000
     45 HAU1        -1.0620    -1.0870     3.1990 h1         1 6LX       0.105200
     46 HAU2        -2.4750    -2.0350     3.6860 h1         1 6LX       0.105200
     47 HAJ         -4.6220    -0.5560     1.1220 h1         1 6LX       0.142700
     48 HBC1        -3.4340    -0.0390     4.7880 hc         1 6LX       0.081200
     49 HBC2        -2.0220     0.9090     4.3000 hc         1 6LX       0.081200
     50 HBD1        -1.9710    -1.5510     6.0850 hx         1 6LX       0.111200
     51 HBD2        -0.5590    -0.6030     5.5980 hx         1 6LX       0.111200
     52 HBE1        -1.6260     1.2960     6.6400 hn         1 6LX       0.457800
     53 HBE2        -2.8240     0.3300     7.1880 hn         1 6LX       0.457800
     54 HAB         -4.6630     0.0000     4.1110 hc         1 6LX       0.029700
     55 HAA1        -4.9570     1.8500     1.7160 hc         1 6LX       0.047367
     56 HAA2        -5.1160     2.3280     3.4120 hc         1 6LX       0.047367
     57 HAA3        -3.5540     1.7750     2.7910 hc         1 6LX       0.047367
     58 HAC1        -6.7630    -0.9980     3.2700 hc         1 6LX       0.047367
     59 HAC2        -6.9960     0.7060     3.6830 hc         1 6LX       0.047367
     60 HAC3        -6.8310     0.2210     1.9900 hc         1 6LX       0.047367
     61 HAF         -3.0730    -3.9170     5.7030 ha         1 6LX       0.128000
     62 HAP         -5.1880    -7.5810     5.1050 ha         1 6LX       0.164000
     63 HAQ         -6.2030    -6.6920     3.0590 ha         1 6LX       0.176000
     64 HBB1        -7.0960    -2.5020     0.3420 hc         1 6LX       0.067200
     65 HBB2        -6.0130    -1.1230     0.5760 hc         1 6LX       0.067200
     66 HBH         -6.6330    -4.1760    -1.2860 ha         1 6LX       0.141000
     67 HBF         -3.7370    -1.1560    -0.4260 ha         1 6LX       0.141000
     68 HBK         -5.3290    -4.8620    -3.2630 ha         1 6LX       0.132500
     69 HBJ         -3.2290    -3.6960    -3.8220 ha         1 6LX       0.134000
     70 HBI         -2.4320    -1.8450    -2.4010 ha         1 6LX       0.132500
     71 HBE3        -1.3130     0.0860     7.7160 hn         1 6LX       0.457800
@<TRIPOS>BOND
     1     6     5 ar  
     2     6     7 ar  
     3     5     3 ar  
     4     3     4 1   
     5     3     2 ar  
     6     2     1 ar  
     7     1     7 ar  
     8     7     8 1   
     9     8     9 2   
    10     8    10 1   
    11    10    11 1   
    12    10    15 1   
    13    11    12 1   
    14    12    13 1   
    15    13    14 1   
    16    15    16 1   
    17    15    19 1   
    18    16    17 1   
    19    16    18 1   
    20    19    20 1   
    21    19    30 2   
    22    20    21 1   
    23    21    22 ar  
    24    21    27 ar  
    25    22    23 ar  
    26    23    24 1   
    27    23    25 ar  
    28    25    26 ar  
    29    26    27 ar  
    30    27    28 1   
    31    28    29 2   
    32    28    30 1   
    33    30    31 1   
    34    31    32 1   
    35    32    37 ar  
    36    32    33 ar  
    37    37    36 ar  
    38    36    35 ar  
    39    35    34 ar  
    40    34    33 ar  
    41     6    38 1   
    42     5    39 1   
    43     4    40 1   
    44     4    41 1   
    45     4    42 1   
    46     2    43 1   
    47     1    44 1   
    48    11    45 1   
    49    11    46 1   
    50    15    47 1   
    51    12    48 1   
    52    12    49 1   
    53    13    50 1   
    54    13    51 1   
    55    14    52 1   
    56    14    53 1   
    57    16    54 1   
    58    17    55 1   
    59    17    56 1   
    60    17    57 1   
    61    18    58 1   
    62    18    59 1   
    63    18    60 1   
    64    22    61 1   
    65    25    62 1   
    66    26    63 1   
    67    31    64 1   
    68    31    65 1   
    69    37    66 1   
    70    33    67 1   
    71    36    68 1   
    72    35    69 1   
    73    34    70 1   
    74    71    14 1   
@<TRIPOS>SUBSTRUCTURE
     1 6LX         1 TEMP              0 ****  ****    0 ROOT
