@<TRIPOS>MOLECULE
6LY
   22    22     1     0     0
SMALL
bcc


@<TRIPOS>ATOM
      1 C4           0.0000     0.0000     0.0000 ca         1 6LY      -0.069500
      2 C5           1.3830     0.0000     0.0000 ca         1 6LY       0.046100
      3 C6           2.0740     0.0000     1.1990 ca         1 6LY      -0.069500
      4 C7           1.3810    -0.0020     2.3950 ca         1 6LY      -0.067000
      5 Br           2.3310     0.0010    -1.6360 br         1 6LY      -0.066100
      6 C3          -0.6910    -0.0020     1.1960 ca         1 6LY      -0.067000
      7 C2          -0.0010    -0.0020     2.3940 ca         1 6LY      -0.181300
      8 C1          -0.7560    -0.0040     3.6980 c3         1 6LY       0.257400
      9 O           -1.8880    -0.8710     3.5930 oh         1 6LY      -0.592800
     10 C           -1.2290     1.4160     4.0160 c3         1 6LY      -0.065200
     11 N           -1.8590     1.4370     5.3430 nz         1 6LY       0.087400
     12 H1          -0.5410     0.0000    -0.9380 ha         1 6LY       0.131000
     13 H2           3.1570     0.0000     1.2000 ha         1 6LY       0.131000
     14 H3           1.9210    -0.0020     3.3340 ha         1 6LY       0.111500
     15 H4          -1.7750    -0.0020     1.1950 ha         1 6LY       0.111500
     16 H5          -0.1060    -0.3540     4.4910 h1         1 6LY       0.014700
     17 H6          -1.6960    -1.6910     4.0160 ho         1 6LY       0.426000
     18 H7          -1.9470     1.7330     3.2700 hx         1 6LY       0.095700
     19 H8          -0.3800     2.0890     4.0090 hx         1 6LY       0.095700
     20 H9          -1.9250     2.3820     5.6660 hn         1 6LY       0.223467
     21 H10         -2.7760     1.0400     5.2830 hn         1 6LY       0.223467
     22 HN3         -1.3060     0.9030     5.9840 hn         1 6LY       0.223467
@<TRIPOS>BOND
     1     1     2 ar  
     2     1     6 ar  
     3     1    12 1   
     4     2     3 ar  
     5     2     5 1   
     6     3     4 ar  
     7     3    13 1   
     8     4     7 ar  
     9     4    14 1   
    10     6     7 ar  
    11     6    15 1   
    12     7     8 1   
    13     8     9 1   
    14     8    10 1   
    15     8    16 1   
    16     9    17 1   
    17    10    11 1   
    18    10    18 1   
    19    10    19 1   
    20    11    20 1   
    21    11    21 1   
    22    11    22 1   
@<TRIPOS>SUBSTRUCTURE
     1 6LY         1 TEMP              0 ****  ****    0 ROOT
