@<TRIPOS>MOLECULE
6LZ
   20    20     1     0     0
SMALL
bcc


@<TRIPOS>ATOM
      1 C4           0.0000     0.0000     0.0000 ca         1 6LZ      -0.137000
      2 C5           1.3870     0.0000     0.0000 ca         1 6LZ       0.189900
      3 C6           2.0870     0.0000     1.1980 ca         1 6LZ      -0.137000
      4 C7           1.4070    -0.0010     2.3960 ca         1 6LZ      -0.002000
      5 F            2.0600     0.0010    -1.1710 f          1 6LZ      -0.102900
      6 C3          -0.6920     0.0050     1.1900 ca         1 6LZ      -0.002000
      7 C2           0.0070    -0.0010     2.4030 ca         1 6LZ      -0.244600
      8 C1          -0.7250    -0.0030     3.6780 c          1 6LZ       0.642700
      9 O           -0.1160    -0.0040     4.7270 o          1 6LZ      -0.554100
     10 C           -2.2310    -0.0020     3.6820 c3         1 6LZ      -0.157200
     11 N           -2.7170    -0.0040     5.0680 nz         1 6LZ       0.106400
     12 H1          -0.5400     0.0020    -0.9390 ha         1 6LZ       0.140000
     13 H2           3.1700    -0.0000     1.1920 ha         1 6LZ       0.140000
     14 H3           1.9540    -0.0030     3.3310 ha         1 6LZ       0.114000
     15 H4          -1.7750     0.0050     1.1880 ha         1 6LZ       0.114000
     16 H5          -2.5940    -0.8860     3.1710 hx         1 6LZ       0.103200
     17 H6          -2.5930     0.8830     3.1720 hx         1 6LZ       0.103200
     18 H7          -3.7180    -0.0030     5.0700 hn         1 6LZ       0.227800
     19 H8          -2.3830    -0.8210     5.5380 hn         1 6LZ       0.227800
     20 HN3         -2.3830     0.8130     5.5390 hn         1 6LZ       0.227800
@<TRIPOS>BOND
     1     1     2 ar  
     2     1     6 ar  
     3     1    12 1   
     4     2     3 ar  
     5     2     5 1   
     6     3     4 ar  
     7     3    13 1   
     8     4     7 ar  
     9     4    14 1   
    10     6     7 ar  
    11     6    15 1   
    12     7     8 1   
    13     8     9 2   
    14     8    10 1   
    15    10    11 1   
    16    10    16 1   
    17    10    17 1   
    18    11    18 1   
    19    11    19 1   
    20    11    20 1   
@<TRIPOS>SUBSTRUCTURE
     1 6LZ         1 TEMP              0 ****  ****    0 ROOT
