@<TRIPOS>MOLECULE
molecule
   19    19     1     0     0
SMALL
bcc


@<TRIPOS>ATOM
      1 OAC          0.0000     0.0000     0.0000 o          1 6M1      -0.839800
      2 CAH          1.2150     0.0000     0.0000 c          1 6M1       0.894200
      3 OAD          1.8890     0.0000     1.1670 o          1 6M1      -0.839800
      4 CAK          1.9510    -0.0050    -1.2750 ca         1 6M1      -0.080600
      5 CAI          2.3020     1.2010    -1.8890 ca         1 6M1      -0.068300
      6 CAA          1.9280     2.5120    -1.2470 c3         1 6M1      -0.041800
      7 CAF          2.9910     1.1890    -3.0830 ca         1 6M1      -0.154000
      8 CAE          3.3390    -0.0120    -3.6800 ca         1 6M1      -0.162000
      9 CAG          3.0000    -1.2110    -3.0860 ca         1 6M1      -0.169000
     10 CAJ          2.3100    -1.2200    -1.8800 ca         1 6M1       0.172600
     11 NAB          1.9680    -2.4250    -1.2810 nv         1 6M1      -0.974200
     12 H2           2.3790     2.5740    -0.2640 hc         1 6M1       0.040033
     13 H3           2.2860     3.3300    -1.8610 hc         1 6M1       0.040033
     14 H4           0.8500     2.5740    -1.1550 hc         1 6M1       0.040033
     15 H5           3.2620     2.1240    -3.5580 ha         1 6M1       0.102000
     16 H6           3.8790    -0.0100    -4.6190 ha         1 6M1       0.098000
     17 H7           3.2770    -2.1460    -3.5570 ha         1 6M1       0.106000
     18 H8           1.1020    -2.8710    -1.5120 hn         1 6M1       0.418800
     19 H9           2.6040    -2.8670    -0.6470 hn         1 6M1       0.418800
@<TRIPOS>BOND
     1     8     7 ar  
     2     8     9 ar  
     3     7     5 ar  
     4     9    10 ar  
     5     5     6 1   
     6     5     4 ar  
     7    10     4 ar  
     8    10    11 1   
     9     4     2 1   
    10     2     1 1   
    11     2     3 1   
    12     6    12 1   
    13     6    13 1   
    14     6    14 1   
    15     7    15 1   
    16     8    16 1   
    17     9    17 1   
    18    11    18 1   
    19    11    19 1   
@<TRIPOS>SUBSTRUCTURE
     1 6M1         1 TEMP              0 ****  ****    0 ROOT
