@<TRIPOS>MOLECULE
6M3
   44    47     1     0     0
SMALL
bcc


@<TRIPOS>ATOM
      1 C1           0.0000     0.0000     0.0000 cc         1 6M3      -0.429900
      2 C3          -2.0750     0.5180     0.4510 cc         1 6M3       0.227400
      3 C11         -0.1390     1.4150     5.4920 ca         1 6M3      -0.058000
      4 C12         -0.2110     1.9940     4.2290 cp         1 6M3      -0.016000
      5 C13         -0.2410     3.4710     4.0910 cp         1 6M3      -0.029000
      6 C14         -0.0320    -0.5790     6.9100 cg         1 6M3       0.227800
      7 C16         -1.3930     4.1080     3.6320 ca         1 6M3      -0.030600
      8 C17         -1.4150     5.4840     3.5050 ca         1 6M3      -0.096000
      9 C18         -0.2950     6.2280     3.8330 ca         1 6M3      -0.087000
     10 C19          0.8510     5.6000     4.2880 ca         1 6M3      -0.095000
     11 C20          0.8810     4.2270     4.4250 ca         1 6M3      -0.054000
     12 C21          1.5060     0.0000     0.0000 c3         1 6M3       0.078900
     13 C22          2.0060     0.0000     1.4490 c3         1 6M3      -0.078400
     14 C23          2.1300     1.4370     1.9440 c3         1 6M3      -0.063400
     15 C24          1.0500     2.3180     1.3170 c3         1 6M3       0.175100
     16 N2          -0.7960     0.8170     0.7560 na         1 6M3       0.299100
     17 N4          -2.0800    -0.4430    -0.4320 nd         1 6M3      -0.621000
     18 C5          -0.8140    -0.7800    -0.7290 cd         1 6M3       0.329200
     19 C6          -0.3350     1.8130     1.7270 c3         1 6M3      -0.041700
     20 C7          -0.2560     1.1850     3.0950 ca         1 6M3      -0.070300
     21 C8          -0.2290    -0.1900     3.2210 ca         1 6M3      -0.117000
     22 C9          -0.1560    -0.7730     4.4690 ca         1 6M3      -0.064000
     23 C10         -0.1050     0.0250     5.6140 ca         1 6M3       0.032000
     24 N15          0.0080    -1.0650     7.9370 n1         1 6M3      -0.372800
     25 O25          1.2170     3.6650     1.7650 oh         1 6M3      -0.575800
     26 Cl1         -2.7980     3.1740     3.2190 cl         1 6M3      -0.024400
     27 H1          -2.9520     0.9900     0.8760 h5         1 6M3       0.027100
     28 H2          -0.2130     2.0340     6.3780 ha         1 6M3       0.123000
     29 H3          -2.3090     5.9800     3.1480 ha         1 6M3       0.116000
     30 H4          -0.3150     7.3060     3.7290 ha         1 6M3       0.106000
     31 H5           1.7230     6.1880     4.5460 ha         1 6M3       0.106000
     32 H6           1.7790     3.7370     4.7820 ha         1 6M3       0.111000
     33 H7           1.8670     0.8860    -0.5070 hc         1 6M3       0.025200
     34 H8           1.8670    -0.8870    -0.5070 hc         1 6M3       0.025200
     35 H9           1.3010    -0.5360     2.0730 hc         1 6M3       0.039700
     36 H10          2.9750    -0.4810     1.4940 hc         1 6M3       0.039700
     37 H11          3.1060     1.8230     1.6740 hc         1 6M3       0.032200
     38 H12          2.0210     1.4530     3.0220 hc         1 6M3       0.032200
     39 H13          1.1400     2.2800     0.2380 h1         1 6M3       0.030700
     40 H14         -0.5050    -1.5460    -1.4300 h4         1 6M3       0.005100
     41 H15         -1.0290     2.6450     1.7460 h1         1 6M3       0.083700
     42 H16         -0.2660    -0.8140     2.3360 ha         1 6M3       0.144000
     43 H17         -0.1330    -1.8530     4.5620 ha         1 6M3       0.118000
     44 H18          1.6260     4.1740     1.0850 ho         1 6M3       0.392000
@<TRIPOS>BOND
     1     1    12 1   
     2     1    16 1   
     3     1    18 2   
     4     2    16 1   
     5     2    17 2   
     6     2    27 1   
     7     3     4 ar  
     8     3    23 ar  
     9     3    28 1   
    10     4     5 1   
    11     4    20 ar  
    12     5     7 ar  
    13     5    11 ar  
    14     6    23 1   
    15     6    24 3   
    16     7     8 ar  
    17     7    26 1   
    18     8     9 ar  
    19     8    29 1   
    20     9    10 ar  
    21     9    30 1   
    22    10    11 ar  
    23    10    31 1   
    24    11    32 1   
    25    12    13 1   
    26    12    33 1   
    27    12    34 1   
    28    13    14 1   
    29    13    35 1   
    30    13    36 1   
    31    14    15 1   
    32    14    37 1   
    33    14    38 1   
    34    15    19 1   
    35    15    25 1   
    36    15    39 1   
    37    16    19 1   
    38    17    18 1   
    39    18    40 1   
    40    19    20 1   
    41    19    41 1   
    42    20    21 ar  
    43    21    22 ar  
    44    21    42 1   
    45    22    23 ar  
    46    22    43 1   
    47    25    44 1   
@<TRIPOS>SUBSTRUCTURE
     1 6M3         1 TEMP              0 ****  ****    0 ROOT
