@<TRIPOS>MOLECULE
6M5
   83    88     1     0     0
SMALL
bcc


@<TRIPOS>ATOM
      1 C1           0.0000     0.0000     0.0000 ca         1 6M5       0.133100
      2 C2           1.3930     0.0000     0.0000 ca         1 6M5       0.112100
      3 C3           3.5000    -0.0010    -1.1030 c3         1 6M5       0.199400
      4 C4           4.0860    -0.0010    -2.5160 c3         1 6M5      -0.029400
      5 C5           5.6140    -0.0010    -2.4370 c3         1 6M5      -0.030400
      6 C6           6.1980    -0.0020    -3.8490 c3         1 6M5       0.203400
      7 C7           8.3050    -0.0020    -4.9510 ca         1 6M5       0.177100
      8 N1          12.0490    -0.0040   -10.0260 nc         1 6M5       0.036000
      9 N2          10.9860    -0.0060   -10.7540 nd         1 6M5      -0.402800
     10 N3           9.8880    -0.0050    -9.8750 na         1 6M5       0.283600
     11 N4           3.4110     0.0000     3.7000 n2         1 6M5      -0.522300
     12 C8           9.6930    -0.0020    -4.9490 ca         1 6M5      -0.179500
     13 C10          9.6900    -0.0030    -7.3510 ca         1 6M5      -0.190500
     14 C20          6.3750     0.2800     3.9870 c3         1 6M5      -0.046400
     15 C30          1.0910    -1.4790     7.0110 c2         1 6M5      -0.167200
     16 C26          3.5500     0.4640     6.0330 c          1 6M5       0.615500
     17 N5           4.1260    -0.0140     4.9050 n          1 6M5       0.076200
     18 C19          5.4910    -0.5460     4.9440 c3         1 6M5       0.038700
     19 C25          5.4570    -1.9570     4.5900 c3         1 6M5      -0.046400
     20 C24          6.8490    -2.6160     4.6710 c3         1 6M5      -0.023400
     21 C23          7.6140    -2.2720     3.4210 c3         1 6M5      -0.026900
     22 C22          8.5070    -1.0300     3.6000 c3         1 6M5      -0.026900
     23 C21          7.8130     0.0960     4.3900 c3         1 6M5      -0.023400
     24 C27          2.1160     0.9160     5.9590 c3         1 6M5      -0.120700
     25 C32          1.3590    -0.0140     5.0020 c3         1 6M5      -0.109000
     26 C31          1.4240    -1.4440     5.5510 c3         1 6M5       0.021800
     27 C29          1.1120    -0.4460     7.7890 c2         1 6M5      -0.135200
     28 C28          1.4540     0.9380     7.3230 c3         1 6M5       0.037800
     29 C18          2.1150    -0.0040     3.6850 ce         1 6M5       0.412900
     30 C15          1.3820     0.0000     2.4060 ca         1 6M5      -0.132900
     31 C16         -0.0150    -0.0050     2.3980 ca         1 6M5      -0.085000
     32 C17         -0.6970    -0.0000     1.1990 ca         1 6M5      -0.183000
     33 O           -0.6780     0.0050    -1.1780 os         1 6M5      -0.291900
     34 C           -2.1050     0.0110    -1.1060 c3         1 6M5       0.241700
     35 C14          2.0850     0.0000     1.1970 ca         1 6M5      -0.142000
     36 O1           2.0740    -0.0010    -1.1780 os         1 6M5      -0.292900
     37 O2           7.6250    -0.0010    -3.7750 os         1 6M5      -0.301900
     38 C12          7.6090     0.0030    -6.1530 ca         1 6M5      -0.179500
     39 C11          8.2940     0.0020    -7.3490 ca         1 6M5      -0.025000
     40 C9          10.3860    -0.0020    -6.1410 ca         1 6M5      -0.025000
     41 C13         10.4300    -0.0040    -8.6320 cd         1 6M5       0.319000
     42 N           11.7380    -0.0040    -8.7800 nc         1 6M5      -0.398000
     43 H1           3.8340    -0.8860    -0.5740 h1         1 6M5       0.005200
     44 H2           3.8340     0.8830    -0.5740 h1         1 6M5       0.005200
     45 H3           3.7520    -0.8860    -3.0450 hc         1 6M5       0.025200
     46 H4           3.7510     0.8830    -3.0460 hc         1 6M5       0.025200
     47 H5           5.9480    -0.8850    -1.9070 hc         1 6M5       0.026700
     48 H6           5.9470     0.8840    -1.9080 hc         1 6M5       0.026700
     49 H7           5.8650    -0.8870    -4.3770 h1         1 6M5       0.004700
     50 H8           5.8640     0.8820    -4.3790 h1         1 6M5       0.004700
     51 H10         10.2330    -0.0010    -4.0100 ha         1 6M5       0.125000
     52 H11          6.1090     1.3270     4.0600 hc         1 6M5       0.026950
     53 H12          6.2350    -0.0690     2.9710 hc         1 6M5       0.026950
     54 H13          0.8140    -2.4320     7.4440 ha         1 6M5       0.100000
     55 H14          5.8810    -0.4490     5.9500 h1         1 6M5       0.073700
     56 H15          4.7870    -2.4710     5.2690 hc         1 6M5       0.026950
     57 H16          5.0820    -2.0540     3.5780 hc         1 6M5       0.026950
     58 H17          6.7380    -3.6910     4.7430 hc         1 6M5       0.019200
     59 H18          7.3800    -2.2400     5.5370 hc         1 6M5       0.019200
     60 H19          8.2380    -3.1150     3.1520 hc         1 6M5       0.012450
     61 H20          6.9080    -2.0820     2.6210 hc         1 6M5       0.012450
     62 H21          9.4060    -1.3220     4.1290 hc         1 6M5       0.012450
     63 H22          8.7780    -0.6530     2.6220 hc         1 6M5       0.012450
     64 H23          7.8530    -0.1420     5.4460 hc         1 6M5       0.019200
     65 H24          8.3450     1.0240     4.2140 hc         1 6M5       0.019200
     66 H25          2.0940     1.9200     5.5520 hc         1 6M5       0.047700
     67 H26          0.3340     0.3100     4.8680 hc         1 6M5       0.058700
     68 H27          0.7150    -2.0620     5.0120 hc         1 6M5       0.027700
     69 H28          2.4240    -1.8340     5.4070 hc         1 6M5       0.027700
     70 H29          0.8700    -0.5890     8.8350 ha         1 6M5       0.101000
     71 H30          2.1300     1.3930     8.0370 hc         1 6M5       0.034200
     72 H31          0.5450     1.5240     7.2650 hc         1 6M5       0.034200
     73 H32         -0.5620    -0.0050     3.3320 ha         1 6M5       0.113000
     74 H33         -1.7800    -0.0020     1.1950 ha         1 6M5       0.124000
     75 H34         -2.5160     0.0170    -2.1080 h1         1 6M5      -0.001967
     76 H35         -2.4360     0.8940    -0.5740 h1         1 6M5      -0.001967
     77 H36         -2.4440    -0.8750    -0.5820 h1         1 6M5      -0.001967
     78 H37          3.1680     0.0000     1.1980 ha         1 6M5       0.143000
     79 H38          6.5250     0.0050    -6.1510 ha         1 6M5       0.125000
     80 H39          7.7500     0.0030    -8.2860 ha         1 6M5       0.112000
     81 H40         11.4690    -0.0040    -6.1380 ha         1 6M5       0.112000
     82 O3           4.1710     0.5250     7.0730 o          1 6M5      -0.656500
     83 H9           8.9170    -0.0060   -10.1160 hn         1 6M5       0.172700
@<TRIPOS>BOND
     1     1     2 ar  
     2     1    32 ar  
     3     1    33 1   
     4     2    35 ar  
     5     2    36 1   
     6     3     4 1   
     7     3    36 1   
     8     3    43 1   
     9     3    44 1   
    10     4     5 1   
    11     4    45 1   
    12     4    46 1   
    13     5     6 1   
    14     5    47 1   
    15     5    48 1   
    16     6    37 1   
    17     6    49 1   
    18     6    50 1   
    19     7    12 ar  
    20     7    37 1   
    21     7    38 ar  
    22     8     9 2   
    23     8    42 1   
    24     9    10 1   
    25    10    41 1   
    26    10    83 1   
    27    11    17 1   
    28    11    29 2   
    29    12    40 ar  
    30    12    51 1   
    31    13    39 ar  
    32    13    40 ar  
    33    13    41 1   
    34    14    18 1   
    35    14    23 1   
    36    14    52 1   
    37    14    53 1   
    38    15    26 1   
    39    15    27 2   
    40    15    54 1   
    41    16    17 1   
    42    16    24 1   
    43    16    82 2   
    44    17    18 1   
    45    18    19 1   
    46    18    55 1   
    47    19    20 1   
    48    19    56 1   
    49    19    57 1   
    50    20    21 1   
    51    20    58 1   
    52    20    59 1   
    53    21    22 1   
    54    21    60 1   
    55    21    61 1   
    56    22    23 1   
    57    22    62 1   
    58    22    63 1   
    59    23    64 1   
    60    23    65 1   
    61    24    25 1   
    62    24    28 1   
    63    24    66 1   
    64    25    26 1   
    65    25    29 1   
    66    25    67 1   
    67    26    68 1   
    68    26    69 1   
    69    27    28 1   
    70    27    70 1   
    71    28    71 1   
    72    28    72 1   
    73    29    30 1   
    74    30    31 ar  
    75    30    35 ar  
    76    31    32 ar  
    77    31    73 1   
    78    32    74 1   
    79    33    34 1   
    80    34    75 1   
    81    34    76 1   
    82    34    77 1   
    83    35    78 1   
    84    38    39 ar  
    85    38    79 1   
    86    39    80 1   
    87    40    81 1   
    88    41    42 2   
@<TRIPOS>SUBSTRUCTURE
     1 6M5         1 TEMP              0 ****  ****    0 ROOT
