@<TRIPOS>MOLECULE
molecule
   83    88     1     0     0
SMALL
bcc


@<TRIPOS>ATOM
      1 C1           0.0000     0.0000     0.0000 ca         1 6M5       0.131100
      2 C2           1.3930     0.0000     0.0000 ca         1 6M5       0.111100
      3 C3           3.5000    -0.0010    -1.1030 c3         1 6M5       0.138400
      4 C4           4.0860    -0.0010    -2.5160 c3         1 6M5      -0.080400
      5 C5           5.6140    -0.0010    -2.4370 c3         1 6M5      -0.081400
      6 C6           6.1980    -0.0020    -3.8490 c3         1 6M5       0.138400
      7 C7           8.3050    -0.0020    -4.9510 ca         1 6M5       0.169100
      8 N1          12.0490    -0.0040   -10.0260 nc         1 6M5      -0.003000
      9 N2          10.9860    -0.0060   -10.7540 nd         1 6M5      -0.215800
     10 N3           9.8880    -0.0050    -9.8750 na         1 6M5      -0.193400
     11 N4           3.4110     0.0000     3.7000 n2         1 6M5      -0.457300
     12 C8           9.6930    -0.0020    -4.9490 ca         1 6M5      -0.194500
     13 C10          9.6900    -0.0030    -7.3510 ca         1 6M5      -0.187500
     14 C20          6.3750     0.2800     3.9870 c3         1 6M5      -0.091400
     15 C30          1.0910    -1.4790     7.0110 c2         1 6M5      -0.178200
     16 C26          3.5500     0.4640     6.0330 c          1 6M5       0.689500
     17 N5           4.1260    -0.0140     4.9050 n          1 6M5      -0.252800
     18 C19          5.4910    -0.5460     4.9440 c3         1 6M5       0.144700
     19 C25          5.4570    -1.9570     4.5900 c3         1 6M5      -0.091400
     20 C24          6.8490    -2.6160     4.6710 c3         1 6M5      -0.077900
     21 C23          7.6140    -2.2720     3.4210 c3         1 6M5      -0.080400
     22 C22          8.5070    -1.0300     3.6000 c3         1 6M5      -0.080400
     23 C21          7.8130     0.0960     4.3900 c3         1 6M5      -0.077900
     24 C27          2.1160     0.9160     5.9590 c3         1 6M5      -0.142700
     25 C32          1.3590    -0.0140     5.0020 c3         1 6M5      -0.137000
     26 C31          1.4240    -1.4440     5.5510 c3         1 6M5      -0.041200
     27 C29          1.1120    -0.4460     7.7890 c2         1 6M5      -0.158200
     28 C28          1.4540     0.9380     7.3230 c3         1 6M5      -0.029200
     29 C18          2.1150    -0.0040     3.6850 ce         1 6M5       0.407900
     30 C15          1.3820     0.0000     2.4060 ca         1 6M5      -0.122900
     31 C16         -0.0150    -0.0050     2.3980 ca         1 6M5      -0.107000
     32 C17         -0.6970    -0.0000     1.1990 ca         1 6M5      -0.196000
     33 O           -0.6780     0.0050    -1.1780 os         1 6M5      -0.311900
     34 C           -2.1050     0.0110    -1.1060 c3         1 6M5       0.126700
     35 C14          2.0850     0.0000     1.1970 ca         1 6M5      -0.154000
     36 O1           2.0740    -0.0010    -1.1780 os         1 6M5      -0.316900
     37 O2           7.6250    -0.0010    -3.7750 os         1 6M5      -0.324900
     38 C12          7.6090     0.0030    -6.1530 ca         1 6M5      -0.194500
     39 C11          8.2940     0.0020    -7.3490 ca         1 6M5      -0.053500
     40 C9          10.3860    -0.0020    -6.1410 ca         1 6M5      -0.053500
     41 C13         10.4300    -0.0040    -8.6320 cd         1 6M5       0.486000
     42 N           11.7380    -0.0040    -8.7800 nc         1 6M5      -0.419000
     43 H1           3.8340    -0.8860    -0.5740 h1         1 6M5       0.039200
     44 H2           3.8340     0.8830    -0.5740 h1         1 6M5       0.039200
     45 H3           3.7520    -0.8860    -3.0450 hc         1 6M5       0.058200
     46 H4           3.7510     0.8830    -3.0460 hc         1 6M5       0.058200
     47 H5           5.9480    -0.8850    -1.9070 hc         1 6M5       0.059700
     48 H6           5.9470     0.8840    -1.9080 hc         1 6M5       0.059700
     49 H7           5.8650    -0.8870    -4.3770 h1         1 6M5       0.039700
     50 H8           5.8640     0.8820    -4.3790 h1         1 6M5       0.039700
     51 H10         10.2330    -0.0010    -4.0100 ha         1 6M5       0.149000
     52 H11          6.1090     1.3270     4.0600 hc         1 6M5       0.052200
     53 H12          6.2350    -0.0690     2.9710 hc         1 6M5       0.052200
     54 H13          0.8140    -2.4320     7.4440 ha         1 6M5       0.123000
     55 H14          5.8810    -0.4490     5.9500 h1         1 6M5       0.092700
     56 H15          4.7870    -2.4710     5.2690 hc         1 6M5       0.052200
     57 H16          5.0820    -2.0540     3.5780 hc         1 6M5       0.052200
     58 H17          6.7380    -3.6910     4.7430 hc         1 6M5       0.045450
     59 H18          7.3800    -2.2400     5.5370 hc         1 6M5       0.045450
     60 H19          8.2380    -3.1150     3.1520 hc         1 6M5       0.039700
     61 H20          6.9080    -2.0820     2.6210 hc         1 6M5       0.039700
     62 H21          9.4060    -1.3220     4.1290 hc         1 6M5       0.039700
     63 H22          8.7780    -0.6530     2.6220 hc         1 6M5       0.039700
     64 H23          7.8530    -0.1420     5.4460 hc         1 6M5       0.045450
     65 H24          8.3450     1.0240     4.2140 hc         1 6M5       0.045450
     66 H25          2.0940     1.9200     5.5520 hc         1 6M5       0.078700
     67 H26          0.3340     0.3100     4.8680 hc         1 6M5       0.078700
     68 H27          0.7150    -2.0620     5.0120 hc         1 6M5       0.059200
     69 H28          2.4240    -1.8340     5.4070 hc         1 6M5       0.059200
     70 H29          0.8700    -0.5890     8.8350 ha         1 6M5       0.126000
     71 H30          2.1300     1.3930     8.0370 hc         1 6M5       0.065700
     72 H31          0.5450     1.5240     7.2650 hc         1 6M5       0.065700
     73 H32         -0.5620    -0.0050     3.3320 ha         1 6M5       0.138000
     74 H33         -1.7800    -0.0020     1.1950 ha         1 6M5       0.144000
     75 H34         -2.5160     0.0170    -2.1080 h1         1 6M5       0.042367
     76 H35         -2.4360     0.8940    -0.5740 h1         1 6M5       0.042367
     77 H36         -2.4440    -0.8750    -0.5820 h1         1 6M5       0.042367
     78 H37          3.1680     0.0000     1.1980 ha         1 6M5       0.162000
     79 H38          6.5250     0.0050    -6.1510 ha         1 6M5       0.149000
     80 H39          7.7500     0.0030    -8.2860 ha         1 6M5       0.144500
     81 H40         11.4690    -0.0040    -6.1380 ha         1 6M5       0.144500
     82 O3           4.1710     0.5250     7.0730 o          1 6M5      -0.621500
     83 H9           8.9170    -0.0060   -10.1160 hn         1 6M5       0.336700
@<TRIPOS>BOND
     1    22    23 1
     2    22    21 1
     3    23    14 1
     4    21    20 1
     5    14    18 1
     6     8     9 2
     7     8    42 1
     8     9    10 1
     9    10    41 1
    10    42    41 2
    11    82    16 2
    12    18    19 1
    13    18    17 1
    14    20    19 1
    15    41    13 1
    16    16    17 1
    17    16    24 1
    18    13    40 ar
    19    13    39 ar
    20    40    12 ar
    21    17    11 1
    22    39    38 ar
    23    12     7 ar
    24    38     7 ar
    25    24    28 1
    26    24    25 1
    27    28    27 1
    28     7    37 1
    29    11    29 2
    30    37     6 1
    31     6     5 1
    32     5     4 1
    33    27    15 2
    34    29    25 1
    35    29    30 1
    36    25    26 1
    37    15    26 1
    38     3     4 1
    39     3    36 1
    40    35    30 ar
    41    35     2 ar
    42    30    31 ar
    43    36     2 1
    44     2     1 ar
    45    31    32 ar
    46     1    32 ar
    47     1    33 1
    48    33    34 1
    49     3    43 1
    50     3    44 1
    51     4    45 1
    52     4    46 1
    53     5    47 1
    54     5    48 1
    55     6    49 1
    56     6    50 1
    57    12    51 1
    58    14    52 1
    59    14    53 1
    60    15    54 1
    61    18    55 1
    62    19    56 1
    63    19    57 1
    64    20    58 1
    65    20    59 1
    66    21    60 1
    67    21    61 1
    68    22    62 1
    69    22    63 1
    70    23    64 1
    71    23    65 1
    72    24    66 1
    73    25    67 1
    74    26    68 1
    75    26    69 1
    76    27    70 1
    77    28    71 1
    78    28    72 1
    79    31    73 1
    80    32    74 1
    81    34    75 1
    82    34    76 1
    83    34    77 1
    84    35    78 1
    85    38    79 1
    86    39    80 1
    87    40    81 1
    88    10    83 1
@<TRIPOS>SUBSTRUCTURE
     1 6M5         1 TEMP              0 ****  ****    0 ROOT
