@<TRIPOS>MOLECULE
molecule
   47    49     1     0     0
SMALL
bcc


@<TRIPOS>ATOM
      1 C31          0.0000     0.0000     0.0000 c3         1 6M8       0.150600
      2 N29          1.4690     0.0000     0.0000 n3         1 6M8      -0.734600
      3 C30          1.9950     0.0000     1.3720 c3         1 6M8       0.150600
      4 C28          1.9960    -1.1390    -0.7650 c3         1 6M8       0.165800
      5 C27          3.5050    -0.9720    -0.9540 c3         1 6M8      -0.036100
      6 C21          4.0450    -2.1400    -1.7390 ca         1 6M8      -0.049300
      7 C22          4.0990    -2.0780    -3.1190 ca         1 6M8      -0.163000
      8 C23          4.5930    -3.1480    -3.8420 ca         1 6M8      -0.088000
      9 C24          5.0350    -4.2810    -3.1870 ca         1 6M8      -0.226000
     10 C25          4.9820    -4.3450    -1.8020 ca         1 6M8       0.143100
     11 C26          4.4900    -3.2680    -1.0780 ca         1 6M8      -0.156000
     12 O12          5.4160    -5.4590    -1.1550 os         1 6M8      -0.323900
     13 C11          5.9130    -6.5260    -1.9640 c3         1 6M8       0.186700
     14 C10          5.8440    -9.7020     0.0760 ca         1 6M8       0.425600
     15 C09          5.4480    -8.6350    -0.7480 ca         1 6M8      -0.137300
     16 C08          6.3450    -7.6670    -1.0800 ca         1 6M8      -0.086300
     17 C07          7.6570    -7.7150    -0.6130 ca         1 6M8      -0.111000
     18 C06          8.0760    -8.7340     0.1880 ca         1 6M8      -0.111000
     19 C05          7.1770    -9.7480     0.5480 ca         1 6M8      -0.156300
     20 C04          7.5750   -10.8190     1.3770 ca         1 6M8      -0.081000
     21 C03          6.6520   -11.7700     1.6890 ca         1 6M8      -0.252300
     22 C02          5.3460   -11.6680     1.1890 ca         1 6M8       0.689200
     23 N02          4.4170   -12.6450     1.5160 nv         1 6M8      -1.085500
     24 N01          4.9790   -10.6640     0.4210 nb         1 6M8      -0.702000
     25 H311        -0.3610     0.8660     0.5410 h1         1 6M8       0.032033
     26 H312        -0.3610     0.0360    -1.0210 h1         1 6M8       0.032033
     27 H313        -0.3610    -0.9020     0.4800 h1         1 6M8       0.032033
     28 H301         2.0560    -1.0190     1.7360 h1         1 6M8       0.032033
     29 H302         1.3340     0.5730     2.0120 h1         1 6M8       0.032033
     30 H303         2.9820     0.4460     1.3810 h1         1 6M8       0.032033
     31 H281         1.5130    -1.1770    -1.7340 h1         1 6M8       0.038200
     32 H282         1.7980    -2.0580    -0.2270 h1         1 6M8       0.038200
     33 H271         3.9880    -0.9350     0.0150 hc         1 6M8       0.057700
     34 H272         3.7020    -0.0530    -1.4920 hc         1 6M8       0.057700
     35 H22          3.7520    -1.1910    -3.6350 ha         1 6M8       0.133000
     36 H26          4.4480    -3.3150     0.0040 ha         1 6M8       0.144000
     37 H23          4.6340    -3.0970    -4.9230 ha         1 6M8       0.130000
     38 H24          5.4200    -5.1190    -3.7540 ha         1 6M8       0.133000
     39 H111         6.7610    -6.1770    -2.5420 h1         1 6M8       0.042700
     40 H112         5.1330    -6.8640    -2.6350 h1         1 6M8       0.042700
     41 H07          8.3530    -6.9320    -0.8900 ha         1 6M8       0.135000
     42 H06          9.0990    -8.7600     0.5450 ha         1 6M8       0.135000
     43 H04          8.5880   -10.8820     1.7540 ha         1 6M8       0.140000
     44 H03          6.9420   -12.6350     2.2740 ha         1 6M8       0.143000
     45 H021         4.2910   -13.4360     0.9170 hn         1 6M8       0.437300
     46 H022         3.8530   -12.5440     2.3370 hn         1 6M8       0.437300
     47 H09          4.4570    -8.6280    -1.1870 ha         1 6M8       0.152000
@<TRIPOS>BOND
     1     1     2 1
     2     2     3 1
     3     2     4 1
     4     4     5 1
     5     5     6 1
     6     6     7 ar
     7     6    11 ar
     8     7     8 ar
     9     8     9 ar
    10     9    10 ar
    11    10    11 ar
    12    10    12 1
    13    12    13 1
    14    13    16 1
    15    14    15 ar
    16    14    19 ar
    17    14    24 ar
    18    15    16 ar
    19    16    17 ar
    20    17    18 ar
    21    18    19 ar
    22    19    20 ar
    23    20    21 ar
    24    21    22 ar
    25    22    23 1
    26    22    24 ar
    27     1    25 1
    28     1    26 1
    29     1    27 1
    30     3    28 1
    31     3    29 1
    32     3    30 1
    33     4    31 1
    34     4    32 1
    35     5    33 1
    36     5    34 1
    37     7    35 1
    38    11    36 1
    39     8    37 1
    40     9    38 1
    41    13    39 1
    42    13    40 1
    43    15    47 1
    44    17    41 1
    45    18    42 1
    46    20    43 1
    47    21    44 1
    48    23    45 1
    49    23    46 1
@<TRIPOS>SUBSTRUCTURE
     1 6M8         1 TEMP              0 ****  ****    0 ROOT
