@<TRIPOS>MOLECULE
molecule
   35    37     1     0     0
SMALL
bcc


@<TRIPOS>ATOM
      1 O5'          0.0000     0.0000     0.0000 oh         1 6MD      -0.592800
      2 C5'          1.4290     0.0000     0.0000 c3         1 6MD       0.141400
      3 C4'          1.9390     0.0000     1.4430 c3         1 6MD       0.126100
      4 O4'          1.5930    -1.2390     2.0840 os         1 6MD      -0.400600
      5 C3'          3.4760     0.1090     1.4550 c3         1 6MD       0.086100
      6 O3'          3.8890     1.2850     2.1550 oh         1 6MD      -0.567800
      7 C2'          3.9390    -1.1610     2.2100 c3         1 6MD       0.094100
      8 O2'          5.0160    -0.8600     3.1000 oh         1 6MD      -0.555800
      9 C1'          2.6640    -1.5550     2.9990 c3         1 6MD       0.260800
     10 N9           2.6720    -2.9850     3.3100 na         1 6MD      -0.251000
     11 C8           2.1470    -3.9810     2.5410 cc         1 6MD       0.426700
     12 N7           2.3300    -5.1330     3.1200 nd         1 6MD      -0.590100
     13 C5           2.9810    -4.9500     4.2930 ca         1 6MD      -0.211200
     14 C6           3.4350    -5.8000     5.3150 ca         1 6MD       0.784200
     15 N6           3.2400    -7.1680     5.2360 nu         1 6MD      -0.895900
     16 N1           4.0560    -5.2620     6.3590 nb         1 6MD      -0.834000
     17 C2           4.2460    -3.9580     6.4440 ca         1 6MD       0.738900
     18 N3           3.8390    -3.1230     5.5110 nb         1 6MD      -0.784000
     19 C4           3.2130    -3.5700     4.4270 ca         1 6MD       0.480800
     20 CZ           3.7200    -8.0400     6.3110 c3         1 6MD       0.228100
     21 H1          -0.3140     0.2150    -0.8630 ho         1 6MD       0.405000
     22 H2           1.7900    -0.8850    -0.5110 h1         1 6MD       0.028700
     23 H3           1.7900     0.8840    -0.5110 h1         1 6MD       0.028700
     24 H4           1.5080     0.8290     1.9910 h1         1 6MD       0.090700
     25 H5           3.8630     0.1080     0.4430 h1         1 6MD       0.044700
     26 H6           4.3510     1.8570     1.5640 ho         1 6MD       0.405000
     27 H7           4.2140    -1.9430     1.5120 h1         1 6MD       0.057700
     28 H8           5.8330    -1.1110     2.7010 ho         1 6MD       0.405000
     29 H9           2.5790    -0.9620     3.9010 h2         1 6MD       0.116700
     30 H10          1.6510    -3.8360     1.5890 h5         1 6MD       0.087800
     31 H11          2.7710    -7.5620     4.4450 hn         1 6MD       0.462800
     32 H12          4.7570    -3.5600     7.3120 h5         1 6MD       0.061100
     33 H13          3.4780    -9.0700     6.0760 h1         1 6MD       0.041367
     34 H14          3.2440    -7.7610     7.2430 h1         1 6MD       0.041367
     35 H15          4.7940    -7.9350     6.4090 h1         1 6MD       0.041367
@<TRIPOS>BOND
     1    17    16 ar  
     2    17    18 ar  
     3    16    14 ar  
     4    18    19 ar  
     5    20    15 1   
     6    14    15 1   
     7    14    13 ar  
     8    19    13 ar  
     9    19    10 1   
    10     3     4 1   
    11     3     2 1   
    12     3     5 1   
    13     4     9 1   
    14    13    12 1   
    15     2     1 1   
    16     6     5 1   
    17     9    10 1   
    18     9     7 1   
    19    10    11 1   
    20     5     7 1   
    21     7     8 1   
    22    12    11 2   
    23     1    21 1   
    24     2    22 1   
    25     2    23 1   
    26     3    24 1   
    27     5    25 1   
    28     6    26 1   
    29     7    27 1   
    30     8    28 1   
    31     9    29 1   
    32    11    30 1   
    33    15    31 1   
    34    17    32 1   
    35    20    33 1   
    36    20    34 1   
    37    20    35 1   
@<TRIPOS>SUBSTRUCTURE
     1 6MD         1 TEMP              0 ****  ****    0 ROOT
