@<TRIPOS>MOLECULE
molecule
   27    28     1     0     0
SMALL
bcc


@<TRIPOS>ATOM
      1 N1           0.0000     0.0000     0.0000 nb         1 6ME      -0.759000
      2 C2           1.3230     0.0000     0.0000 ca         1 6ME       0.934900
      3 N3           2.0160     0.0000     1.1290 nb         1 6ME      -0.771000
      4 C4           1.3910     0.0030     2.3010 ca         1 6ME       0.716200
      5 C5          -0.7020     0.0130     3.6650 c3         1 6ME      -0.013100
      6 C6          -2.1600    -0.4190     3.5140 c3         1 6ME      -0.079700
      7 C7          -2.8000     0.4150     2.3970 c3         1 6ME      -0.078400
      8 C8          -2.1930    -0.0160     1.0630 c3         1 6ME      -0.128700
      9 C13         -2.9060    -0.1790     4.8280 c3         1 6ME      -0.087100
     10 C4A         -0.0090     0.0040     2.3300 ca         1 6ME      -0.335900
     11 C8A         -0.6900    -0.0020     1.1380 ca         1 6ME       0.477600
     12 NA2          1.9980    -0.0000    -1.2070 nv         1 6ME      -1.060500
     13 NA4          2.1170     0.0040     3.4810 nv         1 6ME      -1.080500
     14 H5          -0.6680     1.0150     4.0760 hc         1 6ME       0.054200
     15 H5A         -0.1950    -0.6710     4.3340 hc         1 6ME       0.054200
     16 H6          -2.2010    -1.4690     3.2520 hc         1 6ME       0.055700
     17 H7          -3.8650     0.2200     2.3790 hc         1 6ME       0.050200
     18 H7A         -2.5740     1.4610     2.5650 hc         1 6ME       0.050200
     19 H8          -2.5170     0.6680     0.2880 hc         1 6ME       0.066200
     20 H8A         -2.5290    -1.0180     0.8260 hc         1 6ME       0.066200
     21 H13         -3.9220    -0.5430     4.7380 hc         1 6ME       0.035033
     22 H13A        -2.9210     0.8820     5.0470 hc         1 6ME       0.035033
     23 H13B        -2.4030    -0.7060     5.6300 hc         1 6ME       0.035033
     24 HNA2         2.2350     0.8660    -1.6490 hn         1 6ME       0.442800
     25 HNAA         2.2510    -0.8670    -1.6390 hn         1 6ME       0.442800
     26 HNA4         2.4560    -0.8580     3.8610 hn         1 6ME       0.438800
     27 HNAB         2.3440     0.8710     3.9280 hn         1 6ME       0.438800
@<TRIPOS>BOND
     1     2     1 ar
     2     1    11 ar
     3    12     2 1
     4     3     2 ar
     5     3     4 ar
     6    13     4 1
     7     4    10 ar
     8    10     5 1
     9     5     6 1
    10     5    14 1
    11     5    15 1
    12     7     6 1
    13     6     9 1
    14     6    16 1
    15     8     7 1
    16     7    17 1
    17     7    18 1
    18    11     8 1
    19     8    19 1
    20     8    20 1
    21     9    21 1
    22     9    22 1
    23     9    23 1
    24    10    11 ar
    25    12    24 1
    26    12    25 1
    27    13    26 1
    28    13    27 1
@<TRIPOS>SUBSTRUCTURE
     1 6ME         1 TEMP              0 ****  ****    0 ROOT
