@<TRIPOS>MOLECULE
molecule
   68    68     1     0     0
SMALL
bcc


@<TRIPOS>ATOM
      1 C2           1.4700     0.0000     0.0000 c3         1 6MG       0.174500
      2 C3           1.9710     0.0000     1.4210 c          1 6MG       0.656100
      3 C7           5.8060    -0.3120     4.4950 c3         1 6MG      -0.063000
      4 C8           7.3230    -0.5150     4.5000 c3         1 6MG      -0.084433
      5 C12          5.1340    -1.4680     5.2390 c3         1 6MG      -0.084433
      6 C16          5.4660     1.0080     5.1900 c3         1 6MG      -0.084433
      7 C20          5.9750     0.8840     2.3080 c3         1 6MG      -0.095100
      8 O28          1.1910     0.1350     2.3400 o          1 6MG      -0.611100
      9 C30          3.5000     1.1670    -0.8720 c3         1 6MG      -0.093700
     10 C31          3.8560     0.0220    -1.8230 c3         1 6MG      -0.088600
     11 C35          4.0280     2.4850    -1.4400 c3         1 6MG      -0.088600
     12 N1           0.0000     0.0000     0.0000 n7         1 6MG      -0.904300
     13 N4           3.2880    -0.1500     1.6700 ns         1 6MG      -0.605900
     14 C5           3.7860    -0.0690     3.0450 c3         1 6MG       0.113000
     15 C6           5.3020    -0.2720     3.0510 c3         1 6MG      -0.081700
     16 C29          1.9790     1.2500    -0.7210 c3         1 6MG      -0.108400
     17 P44         -0.6020    -0.8840    -1.3000 p5         1 6MG       1.112500
     18 O45         -0.2250    -2.3060    -1.1460 o          1 6MG      -0.807000
     19 C46         -2.4190    -0.7390    -1.3420 c3         1 6MG      -0.063200
     20 C50         -4.2950    -4.8360    -3.0550 c3         1 6MG       0.215700
     21 C51         -4.7980    -5.4660    -4.3280 ca         1 6MG      -0.083300
     22 C52         -6.1300    -5.3440    -4.6800 ca         1 6MG      -0.103000
     23 C54         -6.5920    -5.9230    -5.8470 ca         1 6MG      -0.139500
     24 C56         -5.7230    -6.6220    -6.6620 ca         1 6MG      -0.131000
     25 C58         -4.3910    -6.7430    -6.3110 ca         1 6MG      -0.139500
     26 C60         -3.9280    -6.1610    -5.1460 ca         1 6MG      -0.103000
     27 O68          0.0140    -0.3100    -2.6710 o          1 6MG      -0.807000
     28 N47         -2.9440    -1.5080    -2.4740 ns         1 6MG      -0.521900
     29 C48         -3.3710    -2.7730    -2.2890 c          1 6MG       0.746100
     30 O49         -3.8530    -3.4800    -3.3280 os         1 6MG      -0.448900
     31 O64         -3.3210    -3.2750    -1.1830 o          1 6MG      -0.609000
     32 H1           1.8310    -0.8840    -0.5110 h1         1 6MG       0.105700
     33 H2           7.5950    -1.2220     3.7260 hc         1 6MG       0.034478
     34 H3           7.6330    -0.8990     5.4650 hc         1 6MG       0.034478
     35 H4           7.8150     0.4320     4.3140 hc         1 6MG       0.034478
     36 H5           4.1420    -1.1660     5.5540 hc         1 6MG       0.034478
     37 H6           5.0590    -2.3250     4.5810 hc         1 6MG       0.034478
     38 H7           5.7250    -1.7300     6.1080 hc         1 6MG       0.034478
     39 H8           4.3990     1.0580     5.3670 hc         1 6MG       0.034478
     40 H9           5.9920     1.0640     6.1360 hc         1 6MG       0.034478
     41 H10          5.7670     1.8360     4.5600 hc         1 6MG       0.034478
     42 H11          6.8860     1.1640     2.8240 hc         1 6MG       0.036033
     43 H12          5.3030     1.7330     2.2770 hc         1 6MG       0.036033
     44 H13          6.2130     0.5740     1.2980 hc         1 6MG       0.036033
     45 H14          3.9600     0.9920     0.0930 hc         1 6MG       0.043700
     46 H15          3.3560     0.1720    -2.7720 hc         1 6MG       0.032367
     47 H16          4.9280     0.0030    -1.9790 hc         1 6MG       0.032367
     48 H17          3.5380    -0.9190    -1.3910 hc         1 6MG       0.032367
     49 H18          3.5450     2.6900    -2.3880 hc         1 6MG       0.032367
     50 H19          5.0980     2.4120    -1.5880 hc         1 6MG       0.032367
     51 H20          3.8140     3.2890    -0.7450 hc         1 6MG       0.032367
     52 H21         -0.5010     0.7980     0.3370 hn         1 6MG       0.389800
     53 H22          3.9120    -0.3920     0.9260 hn         1 6MG       0.319500
     54 H23          3.3160    -0.8390     3.6450 h1         1 6MG       0.047700
     55 H24          3.5500     0.9050     3.4580 h1         1 6MG       0.047700
     56 H25          5.5430    -1.2070     2.5590 hc         1 6MG       0.054700
     57 H26          1.7210     2.1300    -0.1440 hc         1 6MG       0.066200
     58 H27          1.5220     1.3130    -1.7010 hc         1 6MG       0.066200
     59 H28         -2.6960     0.3020    -1.4540 h1         1 6MG       0.053700
     60 H29         -2.8340    -1.1260    -0.4190 h1         1 6MG       0.053700
     61 H30         -3.4650    -5.4150    -2.6680 h1         1 6MG       0.054200
     62 H31         -5.0930    -4.8150    -2.3220 h1         1 6MG       0.054200
     63 H32         -6.8110    -4.7960    -4.0410 ha         1 6MG       0.138000
     64 H33         -7.6350    -5.8280    -6.1230 ha         1 6MG       0.123000
     65 H34         -6.0850    -7.0770    -7.5760 ha         1 6MG       0.118000
     66 H35         -3.7090    -7.2900    -6.9510 ha         1 6MG       0.123000
     67 H36         -2.8850    -6.2560    -4.8710 ha         1 6MG       0.138000
     68 H38         -3.0050    -1.0870    -3.3800 hn         1 6MG       0.321500
@<TRIPOS>BOND
     1    23    22 ar  
     2    23    24 ar  
     3    22    21 ar  
     4    24    25 ar  
     5    21    20 1   
     6    21    26 ar  
     7    25    26 ar  
     8    20    30 1   
     9    30    29 1   
    10    29    31 2   
    11    29    28 1   
    12    28    19 1   
    13    19    17 1   
    14    18    17 1   
    15    27    17 1   
    16    17    12 1   
    17     6     3 1   
    18    14    13 1   
    19    14    15 1   
    20    12     1 1   
    21     4     3 1   
    22    13     2 1   
    23     8     2 2   
    24     2     1 1   
    25     3    15 1   
    26     3     5 1   
    27     1    16 1   
    28    15     7 1   
    29    16     9 1   
    30    10     9 1   
    31     9    11 1   
    32     1    32 1   
    33     4    33 1   
    34     4    34 1   
    35     4    35 1   
    36     5    36 1   
    37     5    37 1   
    38     5    38 1   
    39     6    39 1   
    40     6    40 1   
    41     6    41 1   
    42     7    42 1   
    43     7    43 1   
    44     7    44 1   
    45     9    45 1   
    46    10    46 1   
    47    10    47 1   
    48    10    48 1   
    49    11    49 1   
    50    11    50 1   
    51    11    51 1   
    52    12    52 1   
    53    13    53 1   
    54    14    54 1   
    55    14    55 1   
    56    15    56 1   
    57    16    57 1   
    58    16    58 1   
    59    19    59 1   
    60    19    60 1   
    61    20    61 1   
    62    20    62 1   
    63    22    63 1   
    64    23    64 1   
    65    24    65 1   
    66    25    66 1   
    67    26    67 1   
    68    28    68 1   
@<TRIPOS>SUBSTRUCTURE
     1 6MG         1 TEMP              0 ****  ****    0 ROOT
