@<TRIPOS>MOLECULE
6MH
   16    16     1     0     0
SMALL
bcc


@<TRIPOS>ATOM
      1 C6           0.0000     0.0000     0.0000 c3         1 6MH       0.066100
      2 C5           1.5060     0.0000     0.0000 cc         1 6MH      -0.176600
      3 C4           2.1760     0.0000     1.1760 cd         1 6MH      -0.145000
      4 C3           3.5790    -0.0000     1.1840 cd         1 6MH      -0.049000
      5 C2           4.2520    -0.0000    -0.0030 cc         1 6MH      -0.117200
      6 C1           3.5260     0.0010    -1.2050 cs         1 6MH       0.182600
      7 S1           4.3540     0.0010    -2.7030 s          1 6MH      -0.675400
      8 N1           2.1800    -0.0040    -1.1800 n          1 6MH       0.463500
      9 O1           1.4570    -0.0090    -2.3980 oh         1 6MH      -0.464100
     10 H1          -0.3610     0.1260     1.0130 hc         1 6MH       0.023700
     11 H2          -0.3610     0.8150    -0.6160 hc         1 6MH       0.023700
     12 H3          -0.3610    -0.9410    -0.3970 hc         1 6MH       0.023700
     13 H4           1.6300     0.0000     2.1110 ha         1 6MH       0.130000
     14 H5           4.1210    -0.0000     2.1210 ha         1 6MH       0.117000
     15 H6           5.3350    -0.0000    -0.0180 ha         1 6MH       0.152000
     16 H7           1.6810    -0.7800    -2.8940 ho         1 6MH       0.445000
@<TRIPOS>BOND
     1     1     2 1   
     2     1    10 1   
     3     1    11 1   
     4     1    12 1   
     5     2     3 2   
     6     2     8 1   
     7     3     4 1   
     8     3    13 1   
     9     4     5 2   
    10     4    14 1   
    11     5     6 1   
    12     5    15 1   
    13     6     7 2   
    14     6     8 1   
    15     8     9 1   
    16     9    16 1   
@<TRIPOS>SUBSTRUCTURE
     1 6MH         1 TEMP              0 ****  ****    0 ROOT
