@<TRIPOS>MOLECULE
molecule
   16    16     1     0     0
SMALL
bcc


@<TRIPOS>ATOM
      1 C6           0.0000     0.0000     0.0000 c3         1 6MH      -0.056900
      2 C5           1.5060     0.0000     0.0000 cc         1 6MH       0.051400
      3 C4           2.1760     0.0000     1.1760 cd         1 6MH      -0.212000
      4 C3           3.5790    -0.0000     1.1840 cd         1 6MH      -0.058000
      5 C2           4.2520    -0.0000    -0.0030 cc         1 6MH      -0.181200
      6 C1           3.5260     0.0010    -1.2050 cs         1 6MH       0.409600
      7 S1           4.3540     0.0010    -2.7030 s          1 6MH      -0.630400
      8 N1           2.1800    -0.0040    -1.1800 n          1 6MH      -0.091500
      9 O1           1.4570    -0.0090    -2.3980 oh         1 6MH      -0.353100
     10 H1          -0.3610     0.1260     1.0130 hc         1 6MH       0.064700
     11 H2          -0.3610     0.8150    -0.6160 hc         1 6MH       0.064700
     12 H3          -0.3610    -0.9410    -0.3970 hc         1 6MH       0.064700
     13 H4           1.6300     0.0000     2.1110 ha         1 6MH       0.159000
     14 H5           4.1210    -0.0000     2.1210 ha         1 6MH       0.148000
     15 H6           5.3350    -0.0000    -0.0180 ha         1 6MH       0.182000
     16 H7           1.6810    -0.7800    -2.8940 ho         1 6MH       0.440000
@<TRIPOS>BOND
     1     1     2 1
     2     9     8 1
     3     2     8 1
     4     2     3 2
     5     8     6 1
     6     3     4 1
     7     6     7 2
     8     6     5 1
     9     4     5 2
    10     1    10 1
    11     1    11 1
    12     1    12 1
    13     3    13 1
    14     4    14 1
    15     5    15 1
    16     9    16 1
@<TRIPOS>SUBSTRUCTURE
     1 6MH         1 TEMP              0 ****  ****    0 ROOT
