@<TRIPOS>MOLECULE
molecule
   23    23     1     0     0
SMALL
bcc


@<TRIPOS>ATOM
      1 C01          0.0000     0.0000     0.0000 c3         1 6MJ       0.129700
      2 O02          1.4290     0.0000     0.0000 os         1 6MJ      -0.400600
      3 C03          2.0100     0.0000     1.3050 c3         1 6MJ       0.338900
      4 C04          3.5320    -0.1250     1.1870 c3         1 6MJ       0.119100
      5 C05          4.1520    -0.0640     2.5860 c3         1 6MJ       0.132100
      6 C06          3.7280     1.2430     3.2630 c3         1 6MJ       0.097100
      7 C07          2.1990     1.3160     3.3020 c3         1 6MJ       0.126400
      8 O08          1.6860     1.2220     1.9720 os         1 6MJ      -0.446600
      9 O09          4.2410     1.2780     4.5960 oh         1 6MJ      -0.598800
     10 O10          5.5770    -0.1070     2.4790 oh         1 6MJ      -0.597800
     11 O11          3.8620    -1.3730     0.5720 oh         1 6MJ      -0.592800
     12 H1          -0.3610    -0.1210    -1.0140 h1         1 6MJ       0.036700
     13 H2          -0.3610    -0.8180     0.6120 h1         1 6MJ       0.036700
     14 H3          -0.3610     0.9390     0.4030 h1         1 6MJ       0.036700
     15 H4           1.6250    -0.8350     1.8780 h2         1 6MJ       0.040700
     16 H5           3.9150     0.6920     0.5870 h1         1 6MJ       0.067700
     17 H6           3.8020    -0.9040     3.1730 h1         1 6MJ       0.057700
     18 H7           4.1140     2.0830     2.6990 h1         1 6MJ       0.058700
     19 H8           1.8140     0.4950     3.8950 h1         1 6MJ       0.059200
     20 H9           1.8940     2.2590     3.7400 h1         1 6MJ       0.059200
     21 H10          4.5280     2.1530     4.8000 ho         1 6MJ       0.410000
     22 H11          5.9060    -0.8400     2.9710 ho         1 6MJ       0.415000
     23 H12          4.4570    -1.2230    -0.1440 ho         1 6MJ       0.416000
@<TRIPOS>BOND
     1    11     4 1
     2    10     5 1
     3     4     5 1
     4     4     3 1
     5     2     1 1
     6     2     3 1
     7     5     6 1
     8     3     8 1
     9     6     9 1
    10     6     7 1
    11     8     7 1
    12     1    12 1
    13     1    13 1
    14     1    14 1
    15     3    15 1
    16     4    16 1
    17     5    17 1
    18     6    18 1
    19     7    19 1
    20     7    20 1
    21     9    21 1
    22    10    22 1
    23    11    23 1
@<TRIPOS>SUBSTRUCTURE
     1 6MJ         1 TEMP              0 ****  ****    0 ROOT
