@<TRIPOS>MOLECULE
molecule
   38    39     1     0     0
SMALL
bcc


@<TRIPOS>ATOM
      1 OAA          0.0000     0.0000     0.0000 o          1 6MK      -0.826800
      2 CAS          1.2140     0.0000     0.0000 c          1 6MK       0.859800
      3 OAD          1.8880     0.0000     1.1670 o          1 6MK      -0.826800
      4 CAE          1.9520    -0.0070    -1.2770 ce         1 6MK      -0.067200
      5 CAF          1.2810    -0.0130    -2.4400 cf         1 6MK      -0.298200
      6 CAT          2.0200    -0.0200    -3.7190 c          1 6MK       0.667300
      7 OAB          3.2360    -0.0210    -3.7190 o          1 6MK      -0.650100
      8 NAQ          1.3470    -0.0260    -4.8860 ns         1 6MK      -0.444500
      9 NAR          2.0470    -0.0320    -6.1000 ns         1 6MK      -0.416500
     10 CAU          1.3730    -0.0380    -7.2670 c          1 6MK       0.666700
     11 OAC          0.1580    -0.0370    -7.2670 o          1 6MK      -0.633100
     12 CAX          2.1120    -0.0450    -8.5470 ca         1 6MK      -0.266900
     13 CAN          3.5030     0.0730    -8.5650 ca         1 6MK       0.446200
     14 NAP          4.1620     0.0660    -9.7040 nb         1 6MK      -0.702000
     15 CAJ          3.5450    -0.0500   -10.8650 ca         1 6MK       0.434200
     16 CAM          2.1690    -0.1710   -10.9320 ca         1 6MK      -0.268300
     17 CAW          1.4300    -0.1760    -9.7630 ca         1 6MK       0.014700
     18 CAO         -0.0700    -0.3130    -9.7950 c3         1 6MK       0.010200
     19 CAV         -0.5220    -0.5460   -11.2140 ca         1 6MK      -0.085300
     20 CAK         -0.7150    -1.8340   -11.6750 ca         1 6MK      -0.124000
     21 CAH         -1.1290    -2.0480   -12.9760 ca         1 6MK      -0.130500
     22 CAG         -1.3510    -0.9730   -13.8170 ca         1 6MK      -0.136000
     23 CAI         -1.1600     0.3150   -13.3550 ca         1 6MK      -0.130500
     24 CAL         -0.7490     0.5290   -12.0520 ca         1 6MK      -0.124000
     25 HAE          3.0350    -0.0080    -1.2770 ha         1 6MK       0.130000
     26 HAF          0.1980    -0.0120    -2.4400 ha         1 6MK       0.150000
     27 HAQ          0.3460    -0.0240    -4.8860 hn         1 6MK       0.362500
     28 HAR          3.0480    -0.0500    -6.1000 hn         1 6MK       0.358500
     29 HAN          4.0450     0.1700    -7.6320 h4         1 6MK       0.029100
     30 HAJ          4.1260    -0.0480   -11.7790 h4         1 6MK       0.020100
     31 HAM          1.6750    -0.2680   -11.8920 ha         1 6MK       0.152000
     32 HAO1        -0.3700    -1.1510    -9.1780 hc         1 6MK       0.090700
     33 HAO2        -0.5230     0.5950    -9.4160 hc         1 6MK       0.090700
     34 HAK         -0.5410    -2.6770   -11.0170 ha         1 6MK       0.135500
     35 HAL         -0.5990     1.5390   -11.6900 ha         1 6MK       0.135500
     36 HAH         -1.2800    -3.0580   -13.3380 ha         1 6MK       0.126500
     37 HAG         -1.6750    -1.1410   -14.8370 ha         1 6MK       0.124000
     38 HAI         -1.3360     1.1580   -14.0120 ha         1 6MK       0.126500
@<TRIPOS>BOND
     1     1     2 1
     2     2     3 1
     3     2     4 1
     4     4     5 2
     5     5     6 1
     6     6     7 2
     7     6     8 1
     8     8     9 1
     9     9    10 1
    10    10    11 2
    11    10    12 1
    12    12    13 ar
    13    12    17 ar
    14    13    14 ar
    15    14    15 ar
    16    15    16 ar
    17    16    17 ar
    18    17    18 1
    19    18    19 1
    20    19    20 ar
    21    19    24 ar
    22    20    21 ar
    23    21    22 ar
    24    22    23 ar
    25    23    24 ar
    26     4    25 1
    27     5    26 1
    28     8    27 1
    29     9    28 1
    30    13    29 1
    31    15    30 1
    32    16    31 1
    33    18    32 1
    34    18    33 1
    35    20    34 1
    36    24    35 1
    37    21    36 1
    38    22    37 1
    39    23    38 1
@<TRIPOS>SUBSTRUCTURE
     1 6MK         1 TEMP              0 ****  ****    0 ROOT
