@<TRIPOS>MOLECULE
6MK
   38    41     1     0     0
SMALL
bcc


@<TRIPOS>ATOM
      1 OAA          0.0000     0.0000     0.0000 o          1 6MK      -0.581500
      2 CAS          1.2140     0.0000     0.0000 c3         1 6MK       0.496000
      3 OAD          1.8880     0.0000     1.1670 o          1 6MK      -0.581500
      4 CAE          1.9520    -0.0070    -1.2770 c2         1 6MK      -0.092000
      5 CAF          1.2810    -0.0130    -2.4400 c2         1 6MK      -0.154000
      6 CAT          2.0200    -0.0200    -3.7190 c3         1 6MK       0.326000
      7 OAB          3.2360    -0.0210    -3.7190 o          1 6MK      -0.498000
      8 NAQ          1.3470    -0.0260    -4.8860 n7         1 6MK      -0.058000
      9 NAR          2.0470    -0.0320    -6.1000 ns         1 6MK       0.046000
     10 CAU          1.3730    -0.0380    -7.2670 c2         1 6MK       0.259000
     11 OAC          0.1580    -0.0370    -7.2670 o          1 6MK      -0.442000
     12 CAX          2.1120    -0.0450    -8.5470 c2         1 6MK      -0.187000
     13 CAN          3.5030     0.0730    -8.5650 c2         1 6MK      -0.037000
     14 NAP          4.1620     0.0660    -9.7040 n2         1 6MK      -0.073000
     15 CAJ          3.5450    -0.0500   -10.8650 c2         1 6MK      -0.044000
     16 CAM          2.1690    -0.1710   -10.9320 c2         1 6MK      -0.190000
     17 CAW          1.4300    -0.1760    -9.7630 c2         1 6MK       0.025000
     18 CAO         -0.0700    -0.3130    -9.7950 c3         1 6MK      -0.020000
     19 CAV         -0.5220    -0.5460   -11.2140 ca         1 6MK      -0.080000
     20 CAK         -0.7150    -1.8340   -11.6750 ca         1 6MK      -0.097500
     21 CAH         -1.1290    -2.0480   -12.9760 ca         1 6MK      -0.103500
     22 CAG         -1.3510    -0.9730   -13.8170 ca         1 6MK      -0.111000
     23 CAI         -1.1600     0.3150   -13.3550 ca         1 6MK      -0.103500
     24 CAL         -0.7490     0.5290   -12.0520 ca         1 6MK      -0.097500
     25 HAE          1.4850    -0.8790    -0.8350 DU         1 6MK       0.072000
     26 HAF          1.7460    -0.8900    -2.8730 DU         1 6MK      -0.023000
     27 HAQ          0.3460    -0.0070    -4.8860 hn         1 6MK       0.141000
     28 HAR          3.0480    -0.0470    -6.1000 hn         1 6MK       0.127000
     29 HAN          4.0450     0.1700    -7.6320 h4         1 6MK       0.125000
     30 HAJ          4.1260    -0.0480   -11.7790 h4         1 6MK       0.111000
     31 HAM          1.6750    -0.2680   -11.8920 ha         1 6MK       0.132000
     32 HAO1        -0.3700    -1.1510    -9.1780 hc         1 6MK       0.098500
     33 HAO2        -0.5230     0.5950    -9.4160 hc         1 6MK       0.098500
     34 HAK         -0.5410    -2.6770   -11.0170 ha         1 6MK       0.110000
     35 HAL         -0.5990     1.5390   -11.6900 ha         1 6MK       0.110000
     36 HAH         -1.2800    -3.0580   -13.3380 ha         1 6MK       0.099500
     37 HAG         -1.6750    -1.1410   -14.8370 ha         1 6MK       0.098000
     38 HAI         -1.3360     1.1580   -14.0120 ha         1 6MK       0.099500
@<TRIPOS>BOND
     1     1     2 1   
     2     2     3 1   
     3     2     4 1   
     4     2    25 1   
     5     4     5 1   
     6     4    25 1   
     7     5     6 1   
     8     5    26 1   
     9     6     7 1   
    10     6     8 1   
    11     6    26 1   
    12     8     9 1   
    13     8    27 1   
    14     9    10 1   
    15     9    28 1   
    16    10    11 1   
    17    10    12 1   
    18    12    13 1   
    19    12    17 1   
    20    13    14 1   
    21    13    29 1   
    22    14    15 1   
    23    15    16 1   
    24    15    30 1   
    25    16    17 1   
    26    16    31 1   
    27    17    18 1   
    28    18    19 1   
    29    18    32 1   
    30    18    33 1   
    31    19    20 1   
    32    19    24 1   
    33    20    21 1   
    34    20    34 1   
    35    21    22 1   
    36    21    36 1   
    37    22    23 1   
    38    22    37 1   
    39    23    24 1   
    40    23    38 1   
    41    24    35 1   
@<TRIPOS>SUBSTRUCTURE
     1 6MK         1 TEMP              0 ****  ****    0 ROOT
