@<TRIPOS>MOLECULE
6MM
   60    65     1     0     0
SMALL
bcc


@<TRIPOS>ATOM
      1 C1           0.0000     0.0000     0.0000 c3         1 6MM       0.363600
      2 C2          -0.5140    -1.2560    -0.7050 c3         1 6MM      -0.025100
      3 C3           1.8640     0.0000     1.3780 c3         1 6MM       0.187400
      4 C4           0.6250    -0.5250     2.1270 c3         1 6MM       0.325600
      5 C5           0.6220    -2.4060     3.5130 c3         1 6MM       0.216100
      6 C6          -0.2700    -3.6390     3.6710 c3         1 6MM      -0.038200
      7 C10         -2.8300    -9.7530     3.2710 ca         1 6MM      -0.189600
      8 C13         -1.7830   -10.2520     2.4560 ca         1 6MM       0.037400
      9 C11         -3.9120   -10.6720     3.6480 c          1 6MM       0.636100
     10 N2          -3.8430   -11.9430     3.1910 ns         1 6MM      -0.028400
     11 C12         -2.7980   -12.3460     2.4090 cc         1 6MM      -0.031200
     12 N3          -2.7720   -13.6460     1.9700 nz         1 6MM       0.219400
     13 N4          -1.8210   -11.5500     2.0580 nd         1 6MM      -0.347100
     14 C9          -2.8240    -8.4250     3.6920 ca         1 6MM       0.022000
     15 C14         -0.7420    -9.4130     2.0800 ca         1 6MM       0.028000
     16 C15         -0.7360    -8.0860     2.5090 ca         1 6MM       0.131400
     17 C8          -1.7870    -7.5970     3.3140 ca         1 6MM      -0.256200
     18 N1          -1.4890    -6.2630     3.5640 na         1 6MM       0.237700
     19 N5           0.1220    -7.0540     2.3070 nc         1 6MM      -0.603100
     20 C7          -0.3140    -5.9860     2.9300 cd         1 6MM       0.367700
     21 N            0.3160    -4.7620     2.9340 nu         1 6MM      -0.381200
     22 O1           0.5970    -1.9460     2.1510 os         1 6MM      -0.399600
     23 C16          0.0700    -1.2380     4.3600 c3         1 6MM       0.056100
     24 C20          0.5970     0.0020     3.5650 c3         1 6MM       0.101100
     25 O4           1.9540     0.1160     4.0480 os         1 6MM      -0.354600
     26 C17          1.9170    -0.3120     5.4170 c3         1 6MM       0.339600
     27 C18          3.2010    -1.0730     5.7530 c3         1 6MM      -0.021600
     28 C19          1.7860     0.9060     6.3330 c3         1 6MM      -0.021600
     29 O3           0.7880    -1.1720     5.6020 os         1 6MM      -0.405600
     30 O            1.4340     0.0000     0.0000 os         1 6MM      -0.407600
     31 O5          -0.4660     0.0140     1.3620 os         1 6MM      -0.402600
     32 C           -0.5140     1.2420    -0.7310 c3         1 6MM      -0.025100
     33 H1          -1.4700    -1.5430    -0.2820 hc         1 6MM       0.020367
     34 H2          -0.6340    -1.0540    -1.7620 hc         1 6MM       0.020367
     35 H3           0.1960    -2.0630    -0.5700 hc         1 6MM       0.020367
     36 H4           2.7050    -0.6690     1.5160 h1         1 6MM       0.035200
     37 H5           2.1080     1.0050     1.7020 h1         1 6MM       0.035200
     38 H6           1.6380    -2.6320     3.8100 h1         1 6MM       0.036700
     39 H7           0.7380    -3.6220     4.0690 h1         1 6MM       0.073700
     40 H8          -0.8670    -3.8110     4.5580 h1         1 6MM       0.073700
     41 H10         -3.6120   -13.8430     1.4620 hn         1 6MM       0.213133
     42 H11         -1.9810   -13.7820     1.3730 hn         1 6MM       0.213133
     43 H13          0.0040    -9.7570     1.3750 ha         1 6MM       0.131000
     44 H14         -2.0340    -5.6250     4.1120 hn         1 6MM       0.147700
     45 H16          1.1680    -4.6370     2.4250 hn         1 6MM       0.329800
     46 H17         -1.0070    -1.2500     4.4750 h1         1 6MM       0.078700
     47 H18         -0.4100     0.2830     3.8480 h1         1 6MM       0.112700
     48 H19          3.1710    -1.7540     4.9100 hc         1 6MM       0.024033
     49 H20          4.0710    -0.4280     5.7170 hc         1 6MM       0.024033
     50 H21          3.1210    -1.5990     6.6970 hc         1 6MM       0.024033
     51 H22          2.6250     1.5720     6.1690 hc         1 6MM       0.024033
     52 H23          0.8630     1.4270     6.1110 hc         1 6MM       0.024033
     53 H24          1.7790     0.5820     7.3660 hc         1 6MM       0.024033
     54 H25         -0.0930     1.2740    -1.7290 hc         1 6MM       0.020367
     55 H26         -0.2180     2.1310    -0.1860 hc         1 6MM       0.020367
     56 H27         -1.5950     1.2020    -0.7960 hc         1 6MM       0.020367
     57 H9          -4.5640   -12.5950     3.4290 hn         1 6MM       0.182500
     58 O2          -4.8390   -10.3020     4.3450 o          1 6MM      -0.606500
     59 H33         -2.7070   -14.2620     2.7560 hn         1 6MM       0.213133
     60 H12         -3.5560    -8.0810     4.4120 ha         1 6MM       0.133000
@<TRIPOS>BOND
     1     1     2 1   
     2     1    30 1   
     3     1    31 1   
     4     1    32 1   
     5     2    33 1   
     6     2    34 1   
     7     2    35 1   
     8     3     4 1   
     9     3    30 1   
    10     3    36 1   
    11     3    37 1   
    12     4    22 1   
    13     4    24 1   
    14     4    31 1   
    15     5     6 1   
    16     5    22 1   
    17     5    23 1   
    18     5    38 1   
    19     6    21 1   
    20     6    39 1   
    21     6    40 1   
    22     7     8 ar  
    23     7     9 1   
    24     7    14 ar  
    25     8    13 1   
    26     8    15 ar  
    27     9    10 1   
    28     9    58 2   
    29    10    11 1   
    30    10    57 1   
    31    11    12 1   
    32    11    13 2   
    33    12    41 1   
    34    12    42 1   
    35    12    59 1   
    36    14    17 ar  
    37    14    60 1   
    38    15    16 ar  
    39    15    43 1   
    40    16    17 ar  
    41    16    19 1   
    42    17    18 1   
    43    18    20 1   
    44    18    44 1   
    45    19    20 2   
    46    20    21 1   
    47    21    45 1   
    48    23    24 1   
    49    23    29 1   
    50    23    46 1   
    51    24    25 1   
    52    24    47 1   
    53    25    26 1   
    54    26    27 1   
    55    26    28 1   
    56    26    29 1   
    57    27    48 1   
    58    27    49 1   
    59    27    50 1   
    60    28    51 1   
    61    28    52 1   
    62    28    53 1   
    63    32    54 1   
    64    32    55 1   
    65    32    56 1   
@<TRIPOS>SUBSTRUCTURE
     1 6MM         1 TEMP              0 ****  ****    0 ROOT
