@<TRIPOS>MOLECULE
6MN
   29    29     1     0     0
SMALL
bcc


@<TRIPOS>ATOM
      1 O3P         0.2820    0.2510   -0.9200 o         1 6MN     -0.824000
      2 P           1.5040    0.8120   -0.3280 p5        1 6MN      1.426800
      3 O1P         1.4110    2.4450   -0.1920 oh        1 6MN     -0.795400
      4 O2P         2.1900    0.4130    0.9180 o         1 6MN     -0.824000
      5 O6          2.6810    0.8340   -1.5130 os        1 6MN     -0.570200
      6 C6          3.9120    1.3660   -1.1570 c3        1 6MN      0.188400
      7 C5          4.0130    2.8230   -1.6520 c3        1 6MN      0.066100
      8 O5          3.9970    3.6490   -0.4830 os        1 6MN     -0.438600
      9 C4          5.2720    3.1460   -2.4600 c3        1 6MN      0.082100
     10 O4          5.4220    2.3370   -3.6140 oh        1 6MN     -0.616800
     11 C3          5.1740    4.6210   -2.8960 c3        1 6MN      0.077100
     12 O3          6.3230    5.0160   -3.6300 oh        1 6MN     -0.618800
     13 C2          5.0430    5.5570   -1.6680 c3        1 6MN      0.147500
     14 N2          6.2560    5.7440   -0.8980 n3        1 6MN     -0.896800
     15 C1          3.8970    5.0310   -0.7600 c3        1 6MN      0.334900
     16 O1          2.6700    5.2410   -1.4150 oh        1 6MN     -0.649800
     17 H6          4.0500    1.3280   -0.0390 h1        1 6MN      0.052200
     18 H6A         4.7140    0.7640   -1.6670 h1        1 6MN      0.052200
     19 H5          3.1110    3.0600   -2.2890 h1        1 6MN      0.079700
     20 H4          6.2050    2.9780   -1.8550 h1        1 6MN      0.071700
     21 HO4         4.5590    1.9540   -3.8210 ho        1 6MN      0.424000
     22 H3          4.2620    4.7550   -3.5440 h1        1 6MN      0.058700
     23 HO3         6.5120    4.2930   -4.2440 ho        1 6MN      0.418000
     24 H2          4.7350    6.5720   -2.0540 h1        1 6MN      0.081700
     25 HN2         2.0280    2.7760    0.4550 ho        1 6MN      0.429000
     26 HN2A        7.0090    5.9700   -1.5210 hn        1 6MN      0.353300
     27 H1          3.9030    5.5290    0.2520 h2        1 6MN      0.079700
     28 HO1         2.0260    4.6120   -1.0410 ho        1 6MN      0.458000
     29 H23         6.4860    4.8990   -0.4080 hn        1 6MN      0.353300
@<TRIPOS>BOND
     1    1    2 1   
     2    2    3 1   
     3    2    4 1   
     4    2    5 1   
     5    3   25 1   
     6    5    6 1   
     7    6    7 1   
     8    6   17 1   
     9    6   18 1   
    10    7    8 1   
    11    7    9 1   
    12    7   19 1   
    13    8   15 1   
    14    9   10 1   
    15    9   11 1   
    16    9   20 1   
    17   10   21 1   
    18   11   12 1   
    19   11   13 1   
    20   11   22 1   
    21   12   23 1   
    22   13   14 1   
    23   13   15 1   
    24   13   24 1   
    25   14   26 1   
    26   14   29 1   
    27   15   16 1   
    28   15   27 1   
    29   16   28 1   
@<TRIPOS>SUBSTRUCTURE
     1 6MN         1 TEMP              0 ****  ****    0 ROOT
