@<TRIPOS>MOLECULE
molecule
   29    29     1     0     0
SMALL
bcc


@<TRIPOS>ATOM
      1 O3P          0.0000     0.0000     0.0000 o          1 6MN      -0.847500
      2 P            1.6100     0.0000     0.0000 p5         1 6MN       1.163900
      3 O1P          2.1470     0.0000     1.5170 o          1 6MN      -0.847500
      4 O2P          2.1030    -1.2080    -0.6970 o          1 6MN      -0.847500
      5 O6           2.1480     1.3150    -0.7590 os         1 6MN      -0.558200
      6 C6           3.5320     1.5530    -1.0180 c3         1 6MN       0.235400
      7 C5           3.6920     2.8860    -1.7520 c3         1 6MN       0.118100
      8 O5           3.2790     3.9530    -0.8960 os         1 6MN      -0.368600
      9 C4           5.1590     3.0830    -2.1400 c3         1 6MN       0.114100
     10 O4           5.5590     2.0480    -3.0410 oh         1 6MN      -0.561800
     11 C3           5.3220     4.4460    -2.8200 c3         1 6MN       0.096100
     12 O3           6.7010     4.6700    -3.1200 oh         1 6MN      -0.632800
     13 C2           4.8180     5.5390    -1.8740 c3         1 6MN       0.027500
     14 N2           5.6460     5.5580    -0.6600 nz         1 6MN      -0.800600
     15 C1           3.3640     5.2480    -1.4970 c3         1 6MN       0.324900
     16 O1           2.5500     5.2830    -2.6710 oh         1 6MN      -0.592800
     17 H6           4.0730     1.5900    -0.0810 h1         1 6MN       0.035700
     18 H6A          3.9270     0.7530    -1.6320 h1         1 6MN       0.035700
     19 H5           3.0810     2.8860    -2.6470 h1         1 6MN       0.094700
     20 H4           5.7740     3.0500    -1.2490 h1         1 6MN       0.020700
     21 HO4          6.4110     1.7280    -2.7940 ho         1 6MN       0.411000
     22 H3           4.7400     4.4640    -3.7340 h1         1 6MN       0.105700
     23 HO3          6.7830     4.9900    -4.0030 ho         1 6MN       0.422000
     24 H2           4.8750     6.5000    -2.3710 hx         1 6MN       0.084700
     25 HN2          6.0760     6.4570    -0.5630 hn         1 6MN       0.426133
     26 HN2A         5.0710     5.3750     0.1390 hn         1 6MN       0.426133
     27 H1           3.0200     5.9940    -0.7910 h2         1 6MN       0.062700
     28 HO1          1.8920     5.9520    -2.5780 ho         1 6MN       0.424000
     29 H23          6.3410     4.8400    -0.7190 hn         1 6MN       0.426133
@<TRIPOS>BOND
     1     2     1 1   
     2     5     2 1   
     3     4     2 1   
     4     2     3 1   
     5     5     6 1   
     6     7     6 1   
     7     6    17 1   
     8     6    18 1   
     9     8     7 1   
    10     7     9 1   
    11     7    19 1   
    12    15     8 1   
    13    11     9 1   
    14     9    10 1   
    15     9    20 1   
    16    10    21 1   
    17    13    11 1   
    18    11    12 1   
    19    11    22 1   
    20    12    23 1   
    21    15    13 1   
    22    13    14 1   
    23    13    24 1   
    24    14    25 1   
    25    14    26 1   
    26    16    15 1   
    27    15    27 1   
    28    16    28 1   
    29    29    14 1   
@<TRIPOS>SUBSTRUCTURE
     1 6MN         1 TEMP              0 ****  ****    0 ROOT
