@<TRIPOS>MOLECULE
6MP
   16    17     1     0     0
SMALL
bcc


@<TRIPOS>ATOM
      1 N9         -0.0810   -0.0000    0.0780 nc        1 6MP     -0.622700
      2 C4          1.3380    0.0000    0.0420 ca        1 6MP      0.550300
      3 N3          2.2480    0.0000    1.0570 nb        1 6MP     -0.629000
      4 C2          3.5330    0.0000    0.6400 ca        1 6MP      0.616900
      5 N1          4.0320    0.0010   -0.6360 nb        1 6MP     -0.690000
      6 C6          3.1550    0.0000   -1.6570 ca        1 6MP      0.465600
      7 C7          3.6110    0.0010   -3.0750 c3        1 6MP     -0.157400
      8 C5          1.7690    0.0000   -1.3650 ca        1 6MP     -0.327800
      9 N7          0.6030    0.0000   -2.1260 na        1 6MP     -0.267300
     10 C8         -0.4630   -0.0000   -1.2100 cd        1 6MP      0.437700
     11 H2          4.2990    0.0010    1.4440 h5        1 6MP      0.058100
     12 H71         4.7250   -0.0000   -3.1590 hc        1 6MP      0.059033
     13 H72         3.2160    0.9110   -3.5920 hc        1 6MP      0.059033
     14 H73         3.2150   -0.9090   -3.5930 hc        1 6MP      0.059033
     15 HN7         0.5500    0.0000   -3.1090 hn        1 6MP      0.312700
     16 H8         -1.5080   -0.0000   -1.5470 h5        1 6MP      0.075800
@<TRIPOS>BOND
     1    1    2 1   
     2    1   10 2   
     3    2    3 ar  
     4    2    8 ar  
     5    3    4 ar  
     6    4    5 ar  
     7    4   11 1   
     8    5    6 ar  
     9    6    7 1   
    10    6    8 ar  
    11    7   12 1   
    12    7   13 1   
    13    7   14 1   
    14    8    9 1   
    15    9   10 1   
    16    9   15 1   
    17   10   16 1   
@<TRIPOS>SUBSTRUCTURE
     1 6MP         1 TEMP              0 ****  ****    0 ROOT
