@<TRIPOS>MOLECULE
molecule
   16    17     1     0     0
SMALL
bcc


@<TRIPOS>ATOM
      1 N9           0.0000     0.0000     0.0000 nc         1 6MP      -0.671700
      2 C4           1.3460     0.0000     0.0000 ca         1 6MP       0.617300
      3 N3           2.2810     0.0000     0.9490 nb         1 6MP      -0.693000
      4 C2           3.5560    -0.0000     0.6260 ca         1 6MP       0.676900
      5 N1           3.9690    -0.0000    -0.6280 nb         1 6MP      -0.734000
      6 C6           3.1100    -0.0000    -1.6330 ca         1 6MP       0.485600
      7 C7           3.5950    -0.0000    -3.0600 c3         1 6MP      -0.150400
      8 C5           1.7540     0.0040    -1.3490 ca         1 6MP      -0.359800
      9 N7           0.5950     0.0000    -2.0960 na         1 6MP      -0.251300
     10 C8          -0.4410     0.0000    -1.2270 cd         1 6MP       0.456700
     11 H2           4.2950    -0.0000     1.4190 h5         1 6MP       0.065100
     12 H71          4.6790    -0.0010    -3.0730 hc         1 6MP       0.056367
     13 H72          3.2280    -0.8840    -3.5660 hc         1 6MP       0.056367
     14 H73          3.2290     0.8850    -3.5660 hc         1 6MP       0.056367
     15 HN7          0.5320     0.0000    -3.0940 hn         1 6MP       0.307700
     16 H8          -1.4870     0.0000    -1.5090 h5         1 6MP       0.081800
@<TRIPOS>BOND
     1     1     2 1
     2     1    10 2
     3     2     3 ar
     4     2     8 ar
     5     3     4 ar
     6     4     5 ar
     7     4    11 1
     8     5     6 ar
     9     6     7 1
    10     6     8 ar
    11     7    12 1
    12     7    13 1
    13     7    14 1
    14     8     9 1
    15     9    10 1
    16     9    15 1
    17    10    16 1
@<TRIPOS>SUBSTRUCTURE
     1 6MP         1 TEMP              0 ****  ****    0 ROOT
