@<TRIPOS>MOLECULE
molecule
   52    56     1     0     0
SMALL
bcc


@<TRIPOS>ATOM
      1 C            0.0000     0.0000     0.0000 c3         1 6MQ       0.129700
      2 C1           2.0100     0.0000     1.3060 c3         1 6MQ       0.333900
      3 C2           2.8590     1.5400     2.8100 c3         1 6MQ       0.117100
      4 C3           2.9130     3.0350     3.1330 c3         1 6MQ       0.232800
      5 C4           1.6260     4.6900     4.4260 cc         1 6MQ       0.722700
      6 O            1.4290     0.0000     0.0000 os         1 6MQ      -0.412600
      7 C5           1.9520     6.8630     4.7170 ca         1 6MQ      -0.090200
      8 C6           2.3600     8.1830     4.7490 ca         1 6MQ      -0.040000
      9 C7           1.6240     9.1170     5.4760 ca         1 6MQ       0.103400
     10 C8           1.3090    11.3020     6.2090 cd         1 6MQ       0.422800
     11 C9          -0.2860     9.7180     6.9310 c          1 6MQ       0.723100
     12 O1           1.7270     1.2450     1.9650 os         1 6MQ      -0.436600
     13 O2          -1.2910     9.4260     7.5530 o          1 6MQ      -0.556500
     14 C10          0.4630     8.7040     6.1760 ca         1 6MQ      -0.163600
     15 N            1.7870     3.3880     4.0010 nu         1 6MQ      -0.846200
     16 C11          0.0560     7.3750     6.1420 ca         1 6MQ      -0.020000
     17 C12          0.7970     6.4500     5.4130 ca         1 6MQ       0.179400
     18 C13          4.0790     1.1250     1.9530 c3         1 6MQ       0.083100
     19 N2           1.9960    10.4200     5.5290 nc         1 6MQ      -0.538100
     20 N3           1.7440    12.6040     6.2180 nz         1 6MQ      -0.726600
     21 N4           0.1800    10.9870     6.9100 ns         1 6MQ      -0.485400
     22 N1           2.4550     5.7280     4.1020 na         1 6MQ      -0.293300
     23 N5           0.6550     5.1130     5.1940 nd         1 6MQ      -0.657100
     24 C17          3.5410    -0.1250     1.1970 c3         1 6MQ       0.088100
     25 O4           3.9740    -1.2220     2.0360 os         1 6MQ      -0.403600
     26 C14          5.2510    -0.7810     2.5420 c3         1 6MQ       0.321600
     27 C15          6.3380    -1.0000     1.4890 c3         1 6MQ      -0.103100
     28 C16          5.6000    -1.5410     3.8240 c3         1 6MQ      -0.103100
     29 O3           5.1070     0.6210     2.8200 os         1 6MQ      -0.418600
     30 H1          -0.3610     0.9220     0.4400 h1         1 6MQ       0.041033
     31 H2          -0.3610    -0.8420     0.5780 h1         1 6MQ       0.041033
     32 H3          -0.3610    -0.0790    -1.0180 h1         1 6MQ       0.041033
     33 H4           1.6150    -0.8220     1.8910 h2         1 6MQ       0.074700
     34 H5           2.8170     0.9500     3.7180 h1         1 6MQ       0.082700
     35 H6           2.8540     3.6050     2.2140 h1         1 6MQ       0.056700
     36 H7           3.8440     3.2610     3.6400 h1         1 6MQ       0.056700
     37 H8           3.3000     8.4710     4.2940 ha         1 6MQ       0.155000
     38 H9           1.1490     2.6800     4.3060 hn         1 6MQ       0.492800
     39 H10         -0.7540     7.0390     6.7780 ha         1 6MQ       0.187000
     40 H11          4.4220     1.9080     1.2880 h1         1 6MQ       0.092700
     41 H12          2.5720    12.6830     5.6620 hn         1 6MQ       0.471467
     42 H13          1.0310    13.1960     5.8410 hn         1 6MQ       0.471467
     43 H14         -0.3060    11.7020     7.4130 hn         1 6MQ       0.338500
     44 H15          3.1950     5.7030     3.4290 hn         1 6MQ       0.316700
     45 H17          3.8980    -0.1950     0.1770 h1         1 6MQ       0.104700
     46 H18          7.3130    -0.9090     1.9520 hc         1 6MQ       0.056533
     47 H19          6.2380    -0.2570     0.7070 hc         1 6MQ       0.056533
     48 H20          6.2320    -1.9900     1.0620 hc         1 6MQ       0.056533
     49 H21          6.5120    -1.1370     4.2460 hc         1 6MQ       0.056533
     50 H22          5.7420    -2.5900     3.5940 hc         1 6MQ       0.056533
     51 H23          4.7920    -1.4350     4.5380 hc         1 6MQ       0.056533
     52 H33          1.9390    12.8830     7.1590 hn         1 6MQ       0.471467
@<TRIPOS>BOND
     1    28    26 1   
     2    25    26 1   
     3    25    24 1   
     4    26    27 1   
     5    26    29 1   
     6     2    24 1   
     7     2    12 1   
     8     2     6 1   
     9    29    18 1   
    10    24    18 1   
    11    12     3 1   
    12     1     6 1   
    13    18     3 1   
    14     3     4 1   
    15     4    15 1   
    16    15     5 1   
    17     5    22 1   
    18     5    23 2   
    19    22     7 1   
    20    23    17 1   
    21     7    17 ar  
    22     7     8 ar  
    23    17    16 ar  
    24     8     9 ar  
    25    16    14 ar  
    26     9    14 ar  
    27     9    19 1   
    28    14    11 1   
    29    19    10 2   
    30    11    13 2   
    31    11    21 1   
    32    10    21 1   
    33    10    20 1   
    34     1    30 1   
    35     1    31 1   
    36     1    32 1   
    37     2    33 1   
    38     3    34 1   
    39     4    35 1   
    40     4    36 1   
    41     8    37 1   
    42    15    38 1   
    43    16    39 1   
    44    18    40 1   
    45    20    41 1   
    46    20    42 1   
    47    21    43 1   
    48    22    44 1   
    49    24    45 1   
    50    27    46 1   
    51    27    47 1   
    52    27    48 1   
    53    28    49 1   
    54    28    50 1   
    55    28    51 1   
    56    52    20 1   
@<TRIPOS>SUBSTRUCTURE
     1 6MQ         1 TEMP              0 ****  ****    0 ROOT
