@<TRIPOS>MOLECULE
molecule
   49    52     1     0     0
SMALL
bcc


@<TRIPOS>ATOM
      1 CD2          0.0000     0.0000     0.0000 ca         1 6MR      -0.072800
      2 CE3          1.4100     0.0000     0.0000 ca         1 6MR      -0.051000
      3 CZ3          2.0910     0.0000     1.2220 ca         1 6MR      -0.187000
      4 CH2          1.3940     0.0010     2.4290 ca         1 6MR      -0.126000
      5 CZ2         -0.0030     0.0010     2.4530 ca         1 6MR      -0.171000
      6 CE2         -0.6720     0.0010     1.2240 ca         1 6MR      -0.042200
      7 NE1         -2.0200     0.0010     0.9460 na         1 6MR      -0.184400
      8 CD1         -2.2230     0.0000    -0.4080 cc         1 6MR      -0.138100
      9 CG          -0.9910     0.0000    -1.0210 cd         1 6MR      -0.111400
     10 CB          -0.7520    -0.0010    -2.4790 c3         1 6MR      -0.008200
     11 CA          -0.6510    -1.4140    -3.1000 c3         1 6MR       0.149500
     12 C           -0.3700    -1.3360    -4.5940 c          1 6MR       0.876600
     13 OXT          0.7860    -0.7120    -4.9240 o          1 6MR      -0.829300
     14 O           -1.1310    -1.7940    -5.4400 o          1 6MR      -0.829300
     15 N           -1.8430    -2.1800    -2.8370 n7         1 6MR      -0.843100
     16 SAZ         -1.7840    -3.8920    -2.6950 sy         1 6MR       1.308200
     17 OBE         -1.1420    -4.4350    -3.8770 o          1 6MR      -0.612800
     18 OAP         -3.0740    -4.3990    -2.2690 o          1 6MR      -0.612800
     19 CAY         -0.6760    -4.0900    -1.3320 ca         1 6MR      -0.266500
     20 CAX         -1.1860    -4.1350    -0.0470 ca         1 6MR      -0.026500
     21 CAW         -0.3120    -4.2900     1.0290 ca         1 6MR      -0.138000
     22 CAO          0.6830    -4.1960    -1.5760 ca         1 6MR      -0.026500
     23 CAN          1.5580    -4.3520    -0.5010 ca         1 6MR      -0.138000
     24 CAM          1.0600    -4.3980     0.8010 cp         1 6MR      -0.013000
     25 CAL          1.9670    -4.5600     1.9180 cp         1 6MR      -0.008000
     26 CAK          1.6490    -4.0100     3.1590 ca         1 6MR      -0.116500
     27 CAJ          2.5230    -4.1670     4.2350 ca         1 6MR      -0.102000
     28 CAT          3.7140    -4.8730     4.0690 ca         1 6MR       0.043900
     29 I            5.0170    -5.1040     5.6720 i          1 6MR      -0.189900
     30 CAU          4.0330    -5.4210     2.8270 ca         1 6MR      -0.102000
     31 CAV          3.1590    -5.2650     1.7520 ca         1 6MR      -0.116500
     32 HE3          2.1120     0.4320    -0.7020 ha         1 6MR       0.144000
     33 HZ3          3.1340     0.2880     1.2880 ha         1 6MR       0.120000
     34 HH2          1.9130     0.3450     3.3160 ha         1 6MR       0.113000
     35 HZ2         -0.4500     0.2890     3.3970 ha         1 6MR       0.118000
     36 HNE1        -2.7470     0.0010     1.6340 hn         1 6MR       0.282700
     37 HD1         -3.1820     0.0710    -0.9080 h4         1 6MR       0.169000
     38 HB1          0.1720     0.5290    -2.6760 hc         1 6MR       0.061700
     39 HB2         -1.5640     0.5290    -2.9610 hc         1 6MR       0.061700
     40 HA           0.1820    -1.9250    -2.6320 h1         1 6MR       0.042700
     41 HN          -2.7200    -1.7070    -2.7410 hn         1 6MR       0.430800
     42 HAX         -2.2530    -4.0500     0.1220 ha         1 6MR       0.159500
     43 HAW         -0.6990    -4.3260     2.0400 ha         1 6MR       0.130000
     44 HAO          1.0620    -4.1590    -2.5900 ha         1 6MR       0.159500
     45 HAN          2.6230    -4.4360    -0.6770 ha         1 6MR       0.130000
     46 HAK          0.7230    -3.4620     3.2880 ha         1 6MR       0.145500
     47 HAJ          2.2770    -3.7400     5.2000 ha         1 6MR       0.137000
     48 HAU          4.9590    -5.9690     2.6980 ha         1 6MR       0.137000
     49 HAV          3.4060    -5.6910     0.7870 ha         1 6MR       0.145500
@<TRIPOS>BOND
     1     1     2 ar  
     2     1     6 ar  
     3     1     9 1   
     4     2     3 ar  
     5     2    32 1   
     6     3     4 ar  
     7     3    33 1   
     8     4     5 ar  
     9     4    34 1   
    10     5     6 ar  
    11     5    35 1   
    12     6     7 1   
    13     7     8 1   
    14     7    36 1   
    15     8     9 2   
    16     8    37 1   
    17     9    10 1   
    18    10    11 1   
    19    10    38 1   
    20    10    39 1   
    21    11    12 1   
    22    11    15 1   
    23    11    40 1   
    24    12    14 1   
    25    12    13 1   
    26    15    16 1   
    27    15    41 1   
    28    16    19 1   
    29    16    18 2   
    30    16    17 2   
    31    19    20 ar  
    32    19    22 ar  
    33    20    21 ar  
    34    20    42 1   
    35    21    24 ar  
    36    21    43 1   
    37    22    23 ar  
    38    22    44 1   
    39    23    24 ar  
    40    23    45 1   
    41    24    25 1   
    42    25    31 ar  
    43    25    26 ar  
    44    26    27 ar  
    45    26    46 1   
    46    27    28 ar  
    47    27    47 1   
    48    28    30 ar  
    49    28    29 1   
    50    30    31 ar  
    51    30    48 1   
    52    31    49 1   
@<TRIPOS>SUBSTRUCTURE
     1 6MR         1 TEMP              0 ****  ****    0 ROOT
