@<TRIPOS>MOLECULE
molecule
   38    39     1     0     0
SMALL
bcc


@<TRIPOS>ATOM
      1 C12          0.0000     0.0000     0.0000 c3         1 6MS       0.040300
      2 P18         -5.1610    -4.2980    -3.8390 p5         1 6MS       1.050700
      3 O01          5.5000     0.0010     2.2170 o          1 6MS      -0.625500
      4 C02          4.7380     0.0000     1.2650 c          1 6MS       0.654000
      5 N03          5.2120     0.0000     0.0000 ns         1 6MS      -0.474400
      6 C04          4.3520    -0.0010    -1.0570 cc         1 6MS       0.267800
      7 N05          4.8620    -0.0010    -2.3320 nz         1 6MS      -0.674600
      8 N06          3.0480    -0.0030    -0.8920 nd         1 6MS      -0.622100
      9 C07          2.5060    -0.0030     0.3320 cd         1 6MS       0.082800
     10 C08          3.3380    -0.0060     1.4580 cd         1 6MS       0.194800
     11 N09          2.5340    -0.0060     2.5500 nd         1 6MS      -0.628000
     12 C10          1.2910    -0.0010     2.1700 cc         1 6MS       0.421400
     13 N11          1.2230    -0.0040     0.8070 na         1 6MS      -0.185900
     14 C13         -0.3620    -1.4360    -0.3830 c3         1 6MS      -0.103400
     15 C14         -1.6380    -1.4330    -1.2260 c3         1 6MS      -0.083400
     16 C15         -2.0010    -2.8690    -1.6090 c3         1 6MS      -0.079400
     17 C16         -3.2780    -2.8660    -2.4520 c3         1 6MS      -0.047400
     18 C17         -3.6390    -4.3020    -2.8350 c3         1 6MS      -0.265600
     19 O19         -5.4700    -5.7930    -4.3520 o          1 6MS      -0.718167
     20 O20         -6.3930    -3.7730    -2.9450 o          1 6MS      -0.718167
     21 O21         -4.9810    -3.4040    -5.0050 o          1 6MS      -0.718167
     22 H1           0.1620     0.5830    -0.8980 h1         1 6MS       0.064700
     23 H2          -0.8090     0.4360     0.5730 h1         1 6MS       0.064700
     24 H3           4.1250     0.1770    -2.9860 hn         1 6MS       0.431467
     25 H4           5.2720    -0.8930    -2.5270 hn         1 6MS       0.431467
     26 H6           0.4360     0.0060     2.8360 h5         1 6MS       0.075100
     27 H7          -0.5240    -2.0190     0.5160 hc         1 6MS       0.050700
     28 H8           0.4480    -1.8720    -0.9550 hc         1 6MS       0.050700
     29 H9          -1.4760    -0.8500    -2.1250 hc         1 6MS       0.041200
     30 H10         -2.4480    -0.9970    -0.6540 hc         1 6MS       0.041200
     31 H11         -1.1910    -3.3060    -2.1820 hc         1 6MS       0.030700
     32 H12         -2.1620    -3.4530    -0.7110 hc         1 6MS       0.030700
     33 H13         -4.0870    -2.4300    -1.8790 hc         1 6MS       0.048200
     34 H14         -3.1160    -2.2820    -3.3500 hc         1 6MS       0.048200
     35 H15         -2.8300    -4.7370    -3.4090 hc         1 6MS       0.038700
     36 H16         -3.8010    -4.8860    -1.9370 hc         1 6MS       0.038700
     37 H5           6.2000     0.0010    -0.1620 hn         1 6MS       0.312500
     38 H053         5.5590     0.7120    -2.4120 hn         1 6MS       0.431467
@<TRIPOS>BOND
     1    20     2 1
     2    21     2 1
     3     2    18 1
     4     2    19 1
     5    17    18 1
     6    17    16 1
     7    15    16 1
     8    15    14 1
     9     1    14 1
    10     1    13 1
    11    13    12 1
    12    13     9 1
    13    12    11 2
    14     9     8 1
    15     9    10 2
    16     8     6 2
    17    11    10 1
    18    10     4 1
    19     6     7 1
    20     6     5 1
    21     4     5 1
    22     4     3 2
    23     1    22 1
    24     1    23 1
    25     7    24 1
    26     7    25 1
    27    12    26 1
    28    14    27 1
    29    14    28 1
    30    15    29 1
    31    15    30 1
    32    16    31 1
    33    16    32 1
    34    17    33 1
    35    17    34 1
    36    18    35 1
    37    18    36 1
    38     5    37 1
    39    38     7 1
@<TRIPOS>SUBSTRUCTURE
     1 6MS         1 TEMP              0 ****  ****    0 ROOT
