@<TRIPOS>MOLECULE
molecule
   15    15     1     0     0
SMALL
bcc


@<TRIPOS>ATOM
      1 O6           0.0000     0.0000     0.0000 oh         1 6MU      -0.619300
      2 C6           1.3560     0.0000     0.0000 ca         1 6MU       0.694600
      3 C5           2.0620     0.0000     1.2020 ca         1 6MU      -0.402600
      4 N1           2.0290    -0.0060    -1.1440 nb         1 6MU      -0.804000
      5 C2           3.3520    -0.0070    -1.1480 ca         1 6MU       0.917300
      6 O2           4.0080    -0.0120    -2.3330 oh         1 6MU      -0.598300
      7 N3           4.0500    -0.0000    -0.0240 nb         1 6MU      -0.768000
      8 C4           3.4430    -0.0000     1.1540 ca         1 6MU       0.496600
      9 CI           4.2510     0.0010     2.4270 c3         1 6MU      -0.145400
     10 H61         -0.3140     0.8210    -0.3410 ho         1 6MU       0.442000
     11 H51          1.5410    -0.0000     2.1520 ha         1 6MU       0.160000
     12 H21          4.1720    -0.9010    -2.5980 ho         1 6MU       0.444000
     13 HAI3         4.0690    -0.9190     2.9710 hc         1 6MU       0.060700
     14 HAI2         3.9590     0.8460     3.0390 hc         1 6MU       0.060700
     15 HAI1         5.3040     0.0760     2.1860 hc         1 6MU       0.060700
@<TRIPOS>BOND
     1     9     8 1   
     2     8     3 ar  
     3     8     7 ar  
     4     3     2 ar  
     5     7     5 ar  
     6     2     1 1   
     7     2     4 ar  
     8     5     4 ar  
     9     5     6 1   
    10     1    10 1   
    11     3    11 1   
    12     6    12 1   
    13     9    13 1   
    14     9    14 1   
    15     9    15 1   
@<TRIPOS>SUBSTRUCTURE
     1 6MU         1 TEMP              0 ****  ****    0 ROOT
