@<TRIPOS>MOLECULE
6MU
   15    15     1     0     0
SMALL
bcc


@<TRIPOS>ATOM
      1 O6         -0.0210    0.5010    0.1630 oh        1 6MU     -0.604300
      2 C6          1.3200    0.2490    0.0490 ca        1 6MU      0.682600
      3 C5          2.0590    0.1910    1.2580 ca        1 6MU     -0.420600
      4 N1          1.8690    0.0710   -1.1850 nb        1 6MU     -0.773000
      5 C2          3.2200   -0.1730   -1.1570 ca        1 6MU      0.887300
      6 O2          3.7730   -0.3520   -2.4050 oh        1 6MU     -0.581300
      7 N3          4.0420   -0.2530   -0.0590 nb        1 6MU     -0.791000
      8 C4          3.4390   -0.0670    1.1450 ca        1 6MU      0.503600
      9 CI          4.2680   -0.1410    2.3860 c3        1 6MU     -0.157400
     10 H61        -0.4290    0.5190   -0.7200 ho        1 6MU      0.449000
     11 H51         1.5650    0.3430    2.2220 ha        1 6MU      0.171000
     12 H21         4.7260   -0.5190   -2.2960 ho        1 6MU      0.448000
     13 HAI3        4.7310   -1.1540    2.4820 hc        1 6MU      0.062033
     14 HAI2        3.6340    0.0530    3.2850 hc        1 6MU      0.062033
     15 HAI1        5.0880    0.6190    2.3520 hc        1 6MU      0.062033
@<TRIPOS>BOND
     1    1    2 1   
     2    1   10 1   
     3    2    3 ar  
     4    2    4 ar  
     5    3    8 ar  
     6    3   11 1   
     7    4    5 ar  
     8    5    6 1   
     9    5    7 ar  
    10    6   12 1   
    11    7    8 ar  
    12    8    9 1   
    13    9   13 1   
    14    9   14 1   
    15    9   15 1   
@<TRIPOS>SUBSTRUCTURE
     1 6MU         1 TEMP              0 ****  ****    0 ROOT
