@<TRIPOS>MOLECULE
molecule
   62    67     1     0     0
SMALL
bcc


@<TRIPOS>ATOM
      1 C13          0.0000     0.0000     0.0000 ca         1 6MV      -0.060000
      2 C17          3.5830     0.0000     1.1850 c3         1 6MV       0.192100
      3 C19          4.0930    -1.4430     1.1790 c3         1 6MV      -0.119100
      4 C20          4.0820     0.7220    -0.0680 c3         1 6MV      -0.119100
      5 C21         -3.7140     1.1070    -1.4010 ca         1 6MV      -0.070000
      6 C22         -3.6460     1.1080    -2.7790 ca         1 6MV      -0.133000
      7 C23         -3.1070     0.0270    -3.4520 ca         1 6MV      -0.065000
      8 C24         -2.6290    -1.0690    -2.7450 ca         1 6MV      -0.010400
      9 C11          2.0760     0.0000     1.1990 ca         1 6MV      -0.023300
     10 C12          1.3780     0.0000     0.0000 ca         1 6MV      -0.123000
     11 C34         -0.6920    -5.5020    -5.4720 ca         1 6MV      -0.110000
     12 C33         -0.7590    -2.1880    -3.7080 c          1 6MV       0.714100
     13 C1          -2.1890     0.0000     2.9580 ca         1 6MV       0.091800
     14 C2          -2.1220     0.0040     1.5600 cp         1 6MV      -0.066000
     15 C3          -3.3020     0.0100     0.7990 cq         1 6MV       0.102000
     16 C4          -4.5400     0.0130     1.4390 ca         1 6MV      -0.144000
     17 C5          -4.6120     0.0110     2.8150 ca         1 6MV      -0.086000
     18 C6          -3.4490     0.0060     3.5860 ca         1 6MV      -0.258600
     19 N7          -0.9060    -0.0060     3.4570 na         1 6MV      -0.152300
     20 C8           0.0130    -0.0060     2.4220 ca         1 6MV      -0.017200
     21 C9          -0.6920    -0.0010     1.2090 cp         1 6MV      -0.093000
     22 C10          1.4040    -0.0000     2.4020 ca         1 6MV      -0.112000
     23 C14         -3.5390     0.0010     5.0570 c          1 6MV       0.508700
     24 O15         -2.5240    -0.0060     5.7290 o          1 6MV      -0.475100
     25 N16         -4.7450     0.0050     5.6570 nz         1 6MV      -0.673400
     26 O18          4.0700     0.6740     2.3480 oh         1 6MV      -0.607800
     27 C25         -2.6920    -1.0810    -1.3580 ca         1 6MV       0.166900
     28 C26         -3.2310     0.0150    -0.6800 cq         1 6MV      -0.119000
     29 N28         -2.0840    -2.1620    -3.4310 n          1 6MV      -0.303500
     30 C29         -2.8910    -3.1880    -3.8130 cc         1 6MV       0.500800
     31 N30         -2.4620    -4.2340    -4.4520 nd         1 6MV      -0.620100
     32 C31         -1.1550    -4.3770    -4.7850 ca         1 6MV       0.182400
     33 C32         -0.2410    -3.3600    -4.4290 ca         1 6MV      -0.199600
     34 C35          0.6440    -5.6070    -5.7860 ca         1 6MV      -0.088000
     35 C36          1.5400    -4.6080    -5.4290 ca         1 6MV      -0.142000
     36 C37          1.1060    -3.4830    -4.7620 ca         1 6MV      -0.056000
     37 H1          -0.5430     0.0000    -0.9370 ha         1 6MV       0.156000
     38 H2           3.6240    -1.9890     0.3700 hc         1 6MV       0.049700
     39 H3           3.8490    -1.9150     2.1230 hc         1 6MV       0.049700
     40 H4           5.1680    -1.4450     1.0420 hc         1 6MV       0.049700
     41 H29          3.8850     0.1100    -0.9400 hc         1 6MV       0.049700
     42 H5           5.1480     0.8970     0.0160 hc         1 6MV       0.049700
     43 H6           3.5670     1.6700    -0.1680 hc         1 6MV       0.049700
     44 H7          -4.1370     1.9570    -0.8790 ha         1 6MV       0.148000
     45 H31         -4.0190     1.9580    -3.3370 ha         1 6MV       0.156000
     46 H32         -3.0570     0.0350    -4.5340 ha         1 6MV       0.163000
     47 H8           1.9180     0.0010    -0.9390 ha         1 6MV       0.161000
     48 H9          -1.3820    -6.2880    -5.7550 ha         1 6MV       0.156000
     49 H10         -5.4510     0.0170     0.8520 ha         1 6MV       0.161000
     50 H11         -5.5790     0.0140     3.3020 ha         1 6MV       0.107000
     51 H12         -0.6710    -0.0090     4.4300 hn         1 6MV       0.323700
     52 H13          1.9590     0.0070     3.3320 ha         1 6MV       0.159000
     53 H14         -4.6230     0.0030     6.6510 hn         1 6MV       0.474133
     54 H15         -5.2500     0.8250     5.3850 hn         1 6MV       0.474133
     55 H16          5.0110     0.7320     2.3070 ho         1 6MV       0.416000
     56 H17         -3.9460    -3.1290    -3.5730 h5         1 6MV       0.059800
     57 H18          1.0020    -6.4850    -6.3100 ha         1 6MV       0.143000
     58 H19          2.5880    -4.7090    -5.6860 ha         1 6MV       0.143000
     59 H20          1.8090    -2.7070    -4.4870 ha         1 6MV       0.153000
     60 O38         -0.0260    -1.2760    -3.3730 o          1 6MV      -0.623500
     61 H163        -5.2610    -0.8050     5.3750 hn         1 6MV       0.474133
     62 F27         -2.2280    -2.1450    -0.6670 f          1 6MV      -0.115900
@<TRIPOS>BOND
     1    34    35 ar  
     2    34    11 ar  
     3    35    36 ar  
     4    11    32 ar  
     5    36    33 ar  
     6     3     2 1   
     7    32    33 ar  
     8    32    31 1   
     9    33    12 1   
    10    26     2 1   
    11     2     4 1   
    12     2     9 1   
    13    31    30 2   
    14    12    60 2   
    15    12    29 1   
    16     9    22 ar  
    17     9    10 ar  
    18    22    20 ar  
    19    10     1 ar  
    20    30    29 1   
    21    62    27 1   
    22    29     8 1   
    23    20    21 ar  
    24    20    19 1   
    25     1    21 ar  
    26    21    14 1   
    27    19    13 1   
    28    27     8 ar  
    29    27    28 2   
    30     8     7 ar  
    31    14    13 ar  
    32    14    15 2   
    33    13    18 ar  
    34    24    23 2   
    35    18    23 1   
    36    18    17 ar  
    37    15    28 1   
    38    15    16 1   
    39    28     5 1   
    40    23    25 1   
    41     7     6 ar  
    42    17    16 ar  
    43     5     6 ar  
    44     1    37 1   
    45     3    38 1   
    46     3    39 1   
    47     3    40 1   
    48     4    41 1   
    49     4    42 1   
    50     4    43 1   
    51     5    44 1   
    52     6    45 1   
    53     7    46 1   
    54    10    47 1   
    55    11    48 1   
    56    16    49 1   
    57    17    50 1   
    58    19    51 1   
    59    22    52 1   
    60    25    53 1   
    61    25    54 1   
    62    26    55 1   
    63    30    56 1   
    64    34    57 1   
    65    35    58 1   
    66    36    59 1   
    67    61    25 1   
@<TRIPOS>SUBSTRUCTURE
     1 6MV         1 TEMP              0 ****  ****    0 ROOT
