@<TRIPOS>MOLECULE
6MW
   23    24     1     0     0
SMALL
bcc


@<TRIPOS>ATOM
      1 C10          0.0000     0.0000     0.0000 ca         1 6MW      -0.200300
      2 C11          1.3830     0.0000     0.0000 ca         1 6MW       0.383200
      3 C13          1.4460     0.0010     2.3030 ca         1 6MW       0.383200
      4 C14          0.0670    -0.0050     2.3810 ca         1 6MW      -0.200300
      5 C02         -4.3160    -0.0760     4.2710 c          1 6MW       0.976600
      6 O03         -3.3880     0.0540     5.0330 o          1 6MW      -0.875300
      7 C04         -4.0700    -0.1160     2.7850 c3         1 6MW      -0.005500
      8 C05         -4.3860     1.2700     2.1920 c3         1 6MW       0.152700
      9 S06         -2.8370     1.7270     1.3170 ss         1 6MW      -0.457200
     10 C07         -2.1820     0.0070     1.2520 c3         1 6MW       0.289900
     11 N08         -2.6860    -0.5360     2.5440 n7         1 6MW      -0.532200
     12 C09         -0.6760     0.0010     1.2100 ca         1 6MW      -0.029300
     13 N12          2.0560     0.0000     1.1340 nb         1 6MW      -0.606000
     14 H1          -0.5480     0.0020    -0.9340 ha         1 6MW       0.137000
     15 H2           1.9190    -0.0010    -0.9410 h4         1 6MW      -0.028900
     16 H3           2.0340    -0.0010     3.2130 h4         1 6MW      -0.028900
     17 H4          -0.4280    -0.0040     3.3450 ha         1 6MW       0.137000
     18 H6          -4.7360    -0.8440     2.3360 h1         1 6MW       0.009700
     19 H7          -5.2120     1.2050     1.4930 h1         1 6MW       0.048200
     20 H8          -4.6010     1.9810     2.9810 h1         1 6MW       0.048200
     21 H9          -2.6040    -0.5350     0.4150 h2         1 6MW       0.023700
     22 H10         -2.6390    -1.5350     2.5270 hn         1 6MW       0.251800
     23 O01         -5.5690    -0.1500     4.7460 o          1 6MW      -0.875300
@<TRIPOS>BOND
     1     1     2 ar  
     2     1    12 ar  
     3     1    14 1   
     4     2    13 ar  
     5     2    15 1   
     6     3     4 ar  
     7     3    13 ar  
     8     3    16 1   
     9     4    12 ar  
    10     4    17 1   
    11     5     6 1   
    12     5     7 1   
    13     5    23 1   
    14     7     8 1   
    15     7    11 1   
    16     7    18 1   
    17     8     9 1   
    18     8    19 1   
    19     8    20 1   
    20     9    10 1   
    21    10    11 1   
    22    10    12 1   
    23    10    21 1   
    24    11    22 1   
@<TRIPOS>SUBSTRUCTURE
     1 6MW         1 TEMP              0 ****  ****    0 ROOT
