@<TRIPOS>MOLECULE
molecule
   40    42     1     0     0
SMALL
bcc


@<TRIPOS>ATOM
      1 C6           0.0000     0.0000     0.0000 ca         1 6MY       0.001000
      2 C8           2.0830     0.0000     1.1970 ca         1 6MY      -0.120000
      3 N5          -2.1100     0.0060    -1.4370 na         1 6MY      -0.272900
      4 C9           1.3920    -0.0020     2.3940 ca         1 6MY      -0.130000
      5 C5'         -5.1930    -1.3010    -4.7560 c3         1 6MY       0.145100
      6 C4'         -5.3650    -0.1640    -5.7660 c3         1 6MY       0.103100
      7 O4'         -6.6660    -0.2390    -6.3530 oh         1 6MY      -0.603800
      8 O5'         -3.9130    -1.1910    -4.1300 os         1 6MY      -0.383600
      9 C1'         -3.7220     0.0240    -3.4010 c3         1 6MY       0.138800
     10 C2'         -3.8350     1.2140    -4.3570 c3         1 6MY       0.113100
     11 O2'         -3.7010     2.4320    -3.6220 oh         1 6MY      -0.602800
     12 C3'         -5.2030     1.1780    -5.0460 c3         1 6MY       0.104100
     13 O3'         -5.2900     2.2430    -5.9930 oh         1 6MY      -0.605800
     14 C1          -2.3560     0.0180    -2.7640 cc         1 6MY       0.422800
     15 N2          -1.2200     0.0260    -3.4070 nd         1 6MY      -0.682000
     16 C3          -0.2100     0.0190    -2.5300 cd         1 6MY       0.334200
     17 C4          -0.7430     0.0070    -1.2780 cc         1 6MY      -0.181600
     18 C7           1.3950     0.0000     0.0000 ca         1 6MY      -0.123000
     19 C10          0.0080    -0.0020     2.4020 ca         1 6MY      -0.120000
     20 C11         -0.6910    -0.0020     1.2130 ca         1 6MY      -0.123000
     21 H1           3.1660    -0.0000     1.1970 ha         1 6MY       0.132000
     22 H2          -2.7860    -0.1460    -0.7150 hn         1 6MY       0.302700
     23 H3           1.9360    -0.0020     3.3310 ha         1 6MY       0.131000
     24 H4          -5.3580    -4.5320    -4.9630 ho         1 6MY       0.404000
     25 H8          -4.6100    -0.2510    -6.5380 h1         1 6MY       0.061700
     26 H9          -6.6030    -0.0760    -7.2790 ho         1 6MY       0.414000
     27 H10         -4.4830     0.1050    -2.6350 h1         1 6MY       0.049700
     28 H11         -3.0540     1.1500    -5.1050 h1         1 6MY       0.080700
     29 H12         -3.2380     3.0650    -4.1450 ho         1 6MY       0.419000
     30 H13         -5.9840     1.2850    -4.3020 h1         1 6MY       0.056700
     31 H14         -6.0160     2.8030    -5.7720 ho         1 6MY       0.414000
     32 H16          0.8460     0.0220    -2.7730 h4         1 6MY       0.043100
     33 H17          1.9370     0.0020    -0.9380 ha         1 6MY       0.128500
     34 H18         -0.5270    -0.0030     3.3430 ha         1 6MY       0.132000
     35 H19         -1.7740    -0.0020     1.2200 ha         1 6MY       0.128500
     36 H7          -5.9680    -1.2320    -4.0030 h1         1 6MY       0.060700
     37 C6'         -5.2930    -2.6460    -5.4790 c3         1 6MY       0.152400
     38 H5          -6.2270    -2.6930    -6.0260 h1         1 6MY       0.038200
     39 O6'         -5.2480    -3.7060    -4.5220 oh         1 6MY      -0.601800
     40 H6          -4.4640    -2.7470    -6.1690 h1         1 6MY       0.038200
@<TRIPOS>BOND
     1    13    12 1   
     2     7     6 1   
     3    12     6 1   
     4    12    10 1   
     5     6     5 1   
     6    11    10 1   
     7    10     9 1   
     8    39    37 1   
     9     5    37 1   
    10     5     8 1   
    11     9     8 1   
    12     9    14 1   
    13    15    14 2   
    14    15    16 1   
    15    14     3 1   
    16    16    17 2   
    17     3    17 1   
    18    17     1 1   
    19     1    18 ar  
    20     1    20 ar  
    21    18     2 ar  
    22    20    19 ar  
    23     2     4 ar  
    24    19     4 ar  
    25     2    21 1   
    26     3    22 1   
    27     4    23 1   
    28    39    24 1   
    29    37    38 1   
    30    37    40 1   
    31     5    36 1   
    32     6    25 1   
    33     7    26 1   
    34     9    27 1   
    35    10    28 1   
    36    11    29 1   
    37    12    30 1   
    38    13    31 1   
    39    16    32 1   
    40    18    33 1   
    41    19    34 1   
    42    20    35 1   
@<TRIPOS>SUBSTRUCTURE
     1 6MY         1 TEMP              0 ****  ****    0 ROOT
