@<TRIPOS>MOLECULE
molecule
   42    45     1     0     0
SMALL
bcc


@<TRIPOS>ATOM
      1 C1           0.0000     0.0000     0.0000 ca         1 6N0      -0.087000
      2 C2           1.3830     0.0000     0.0000 ca         1 6N0      -0.134000
      3 C6          -0.7060     0.0010     1.1800 ca         1 6N0      -0.110000
      4 C10         -1.5230     0.0070     6.4400 ca         1 6N0      -0.156000
      5 C3           2.0620     0.0000     1.2080 ca         1 6N0       0.001000
      6 C11         -0.1700     0.0070     6.1480 ca         1 6N0       0.017000
      7 C8          -2.0200     0.0050     4.0830 ca         1 6N0      -0.156000
      8 C5          -0.0330     0.0020     2.4180 cp         1 6N0      -0.007000
      9 C7          -0.6480     0.0030     3.7730 cp         1 6N0       0.011000
     10 C9          -2.4430     0.0060     5.3980 ca         1 6N0       0.112600
     11 C4           1.3600     0.0010     2.3840 ca         1 6N0      -0.250500
     12 C12          0.2480     0.0050     4.8420 ca         1 6N0      -0.274500
     13 C21         -6.9420    -2.1950     8.3470 c3         1 6N0      -0.140400
     14 C23         -7.3840    -1.7630     5.9240 c3         1 6N0      -0.140400
     15 C20         -6.0820    -0.9290     8.4290 c3         1 6N0       0.113000
     16 C24         -6.5290    -0.4930     5.9790 c3         1 6N0       0.113000
     17 C22         -8.0320    -1.9970     7.2910 c3         1 6N0       0.403600
     18 N19         -5.5720    -0.6140     7.0880 n          1 6N0      -0.508800
     19 N16         -3.8130     0.0060     5.6840 ns         1 6N0      -0.489100
     20 O18         -3.4580    -0.6890     7.7640 o          1 6N0      -0.642100
     21 F26         -8.8150    -0.8890     7.6310 f          1 6N0      -0.235800
     22 S13          1.8540     0.0030     4.0880 sy         1 6N0       1.279600
     23 H1          -0.5340    -0.0000    -0.9420 ha         1 6N0       0.135000
     24 H2           1.9300    -0.0010    -0.9350 ha         1 6N0       0.141000
     25 H6          -1.7890     0.0010     1.1580 ha         1 6N0       0.132000
     26 H3           3.1450     0.0000     1.2230 ha         1 6N0       0.142000
     27 H10         -1.8610     0.0080     7.4700 ha         1 6N0       0.205000
     28 H11          0.5580     0.0080     6.9500 ha         1 6N0       0.146000
     29 H8          -2.7510     0.0030     3.2830 ha         1 6N0       0.131000
     30 H16         -4.4620     0.3760     5.0190 hn         1 6N0       0.326500
     31 H211        -6.3190    -3.0360     8.0690 hc         1 6N0       0.078200
     32 H212        -7.4020    -2.3810     9.3100 hc         1 6N0       0.078200
     33 H201        -5.2500    -1.0990     9.1020 h1         1 6N0       0.066950
     34 H202        -6.6850    -0.1040     8.7900 h1         1 6N0       0.066950
     35 H231        -6.7560    -2.6090     5.6730 hc         1 6N0       0.078200
     36 H232        -8.1570    -1.6440     5.1740 hc         1 6N0       0.078200
     37 H241        -7.1670     0.3670     6.1440 h1         1 6N0       0.066950
     38 H242        -5.9890    -0.3780     5.0470 h1         1 6N0       0.066950
     39 O14          2.4580    -1.2530     4.3620 o          1 6N0      -0.609300
     40 C17         -4.2530    -0.4410     6.8770 c          1 6N0       0.794100
     41 O15          2.4590     1.2590     4.3610 o          1 6N0      -0.609300
     42 F25         -8.8380    -3.1380     7.2350 f          1 6N0      -0.235800
@<TRIPOS>BOND
     1     1     2 ar
     2     1     3 ar
     3     2     5 ar
     4     3     8 ar
     5     4     6 ar
     6     4    10 ar
     7     5    11 ar
     8     6    12 ar
     9     7     9 ar
    10     7    10 ar
    11     8     9 1
    12     8    11 ar
    13     9    12 ar
    14    10    19 1
    15    11    22 1
    16    12    22 1
    17    40    18 1
    18    40    19 1
    19    40    20 2
    20    13    15 1
    21    13    17 1
    22    14    16 1
    23    14    17 1
    24    15    18 1
    25    16    18 1
    26    17    42 1
    27    17    21 1
    28    39    22 2
    29    41    22 2
    30     1    23 1
    31     2    24 1
    32     3    25 1
    33     5    26 1
    34     4    27 1
    35     6    28 1
    36     7    29 1
    37    19    30 1
    38    13    31 1
    39    13    32 1
    40    15    33 1
    41    15    34 1
    42    14    35 1
    43    14    36 1
    44    16    37 1
    45    16    38 1
@<TRIPOS>SUBSTRUCTURE
     1 6N0         1 TEMP              0 ****  ****    0 ROOT
