@<TRIPOS>MOLECULE
molecule
   43    45     1     0     0
SMALL
bcc


@<TRIPOS>ATOM
      1 C1           0.0000     0.0000     0.0000 ca         1 6N1      -0.201600
      2 C2           1.4010     0.0000     0.0000 ca         1 6N1      -0.079000
      3 C3           2.0930     0.0000     1.1740 ca         1 6N1      -0.100000
      4 C4           1.4040     0.0020     2.3930 ca         1 6N1       0.209400
      5 N5          -0.3810     0.0030     3.7340 na         1 6N1      -0.290300
      6 C12         -0.0020     0.0020     2.4010 ca         1 6N1      -0.138200
      7 C13         -0.7000     0.0060     1.2080 ca         1 6N1      -0.002000
      8 O           -1.9520    -0.0020    -1.2780 o          1 6N1      -0.568100
      9 C           -0.7360    -0.0010    -1.2780 c          1 6N1       0.617700
     10 N1          -0.0610    -0.0030    -2.4440 ns         1 6N1      -0.395300
     11 N           -0.7430    -0.0040    -3.6280 nz         1 6N1      -0.893600
     12 C5           0.7630    -0.0070     4.4780 cc         1 6N1       0.728700
     13 N2           1.8090    -0.0040     3.6870 nd         1 6N1      -0.667100
     14 N3           0.8110    -0.0120     5.8530 nu         1 6N1      -0.847200
     15 C6          -0.4300    -0.0140     6.6310 c3         1 6N1       0.205800
     16 H1           1.9190    -0.0220    -0.9510 ha         1 6N1       0.140000
     17 H2           3.1670     0.1340     1.2130 ha         1 6N1       0.170000
     18 H3          -1.3180     0.0030     4.0860 hn         1 6N1       0.317700
     19 H4          -1.7490     0.2590     1.3030 ha         1 6N1       0.157000
     20 H5          -0.9630    -0.4370    -2.4080 hn         1 6N1       0.417500
     21 H6          -1.1950    -0.8530    -3.9020 hn         1 6N1       0.526133
     22 H7          -0.0100    -0.6190    -3.3360 hn         1 6N1       0.526133
     23 H9           1.6900    -0.0960     6.3260 hn         1 6N1       0.486800
     24 H10         -1.0320     0.8710     6.4630 h1         1 6N1       0.056200
     25 H11         -1.0130    -0.8970     6.4010 h1         1 6N1       0.056200
     26 C7          -0.0970    -0.0200     8.1240 c3         1 6N1       0.149800
     27 N4          -1.3430    -0.0220     8.9040 n3         1 6N1      -0.735600
     28 C9          -1.0730    -0.2660    10.3280 c3         1 6N1       0.118800
     29 C10         -2.3880    -0.2010    11.1100 c3         1 6N1       0.145900
     30 O1          -3.3090    -1.1480    10.5630 os         1 6N1      -0.416600
     31 C14         -3.5950    -0.9400     9.1770 c3         1 6N1       0.145900
     32 C15         -2.2930    -1.0120     8.3760 c3         1 6N1       0.118800
     33 H8           0.4930     0.8590     8.3530 h1         1 6N1       0.050700
     34 H12          0.4470    -0.9180     8.3900 h1         1 6N1       0.050700
     35 H13         -0.3720     0.4830    10.6750 h1         1 6N1       0.043200
     36 H14         -0.6280    -1.2480    10.4390 h1         1 6N1       0.043200
     37 H15         -2.1980    -0.4400    12.1490 h1         1 6N1       0.060450
     38 H16         -2.7910     0.7990    11.0010 h1         1 6N1       0.060450
     39 H17         -4.2670    -1.7000     8.7970 h1         1 6N1       0.060450
     40 H18         -4.0450     0.0430     9.0960 h1         1 6N1       0.060450
     41 H19         -2.4370    -0.7750     7.3290 h1         1 6N1       0.043200
     42 H20         -1.8270    -1.9860     8.4670 h1         1 6N1       0.043200
     43 HN3         -0.4430     0.6680    -4.3070 hn         1 6N1       0.526133
@<TRIPOS>BOND
     1    15    14 1   
     2    14    12 1   
     3    12    13 2   
     4    12     5 1   
     5    13     4 1   
     6     5     6 1   
     7     4     6 ar  
     8     4     3 ar  
     9     6     7 ar  
    10     3     2 ar  
    11     7     1 ar  
    12     2     1 ar  
    13     1     9 1   
    14     9     8 2   
    15     9    10 1   
    16    10    11 1   
    17     2    16 1   
    18     3    17 1   
    19     5    18 1   
    20     7    19 1   
    21    10    20 1   
    22    11    21 1   
    23    11    22 1   
    24    14    23 1   
    25    15    24 1   
    26    15    25 1   
    27    15    26 1   
    28    26    27 1   
    29    27    28 1   
    30    28    29 1   
    31    29    30 1   
    32    30    31 1   
    33    31    32 1   
    34    32    27 1   
    35    26    33 1   
    36    26    34 1   
    37    28    35 1   
    38    28    36 1   
    39    29    37 1   
    40    29    38 1   
    41    31    39 1   
    42    31    40 1   
    43    32    41 1   
    44    32    42 1   
    45    43    11 1   
@<TRIPOS>SUBSTRUCTURE
     1 6N1         1 TEMP              0 ****  ****    0 ROOT
