@<TRIPOS>MOLECULE
6N1
   43    47     1     0     0
SMALL
bcc


@<TRIPOS>ATOM
      1 C1           0.0000     0.0000     0.0000 ca         1 6N1      -0.214000
      2 C2           1.4010     0.0000     0.0000 ca         1 6N1      -0.051000
      3 C3           2.0930     0.0000     1.1740 ca         1 6N1      -0.066000
      4 C4           1.4040     0.0020     2.3930 ca         1 6N1       0.046000
      5 N5          -0.3810     0.0030     3.7340 na         1 6N1       0.271000
      6 C12         -0.0020     0.0020     2.4010 ca         1 6N1      -0.283000
      7 C13         -0.7000     0.0060     1.2080 ca         1 6N1       0.062000
      8 O           -1.9520    -0.0020    -1.2780 o          1 6N1      -0.370000
      9 C           -0.7360    -0.0010    -1.2780 c3         1 6N1       0.351000
     10 N1          -0.0610    -0.0030    -2.4440 ny         1 6N1      -0.279000
     11 N           -0.7430    -0.0040    -3.6280 nz         1 6N1       0.443000
     12 C5           0.7630    -0.0070     4.4780 c2         1 6N1      -0.095000
     13 N2           1.8090    -0.0040     3.6870 n2         1 6N1      -0.174000
     14 N3           0.8110    -0.0120     5.8530 nu         1 6N1       0.097000
     15 C6          -0.4300    -0.0140     6.6310 c3         1 6N1      -0.119000
     16 H1           1.9190    -0.0220    -0.9510 ha         1 6N1       0.108000
     17 H2           3.1670     0.1340     1.2130 ha         1 6N1       0.132000
     18 H3          -1.3180     0.0030     4.0860 hn         1 6N1       0.094000
     19 H4          -1.7490     0.2590     1.3030 ha         1 6N1       0.119000
     20 H5          -0.9630    -0.4370    -2.4080 DU         1 6N1       0.224000
     21 H6          -1.1950    -0.8530    -3.9020 hn         1 6N1       0.101000
     22 H7          -0.0100    -0.6190    -3.3360 DU         1 6N1       0.201000
     23 H9           1.6900    -0.0960     6.3260 hn         1 6N1       0.119000
     24 H10         -1.0320     0.8710     6.4630 h1         1 6N1       0.070000
     25 H11         -1.0130    -0.8970     6.4010 h1         1 6N1       0.070000
     26 C7          -0.0970    -0.0200     8.1240 c3         1 6N1      -0.085000
     27 N4          -1.3430    -0.0220     8.9040 n3         1 6N1      -0.072000
     28 C9          -1.0730    -0.2660    10.3280 c3         1 6N1      -0.132000
     29 C10         -2.3880    -0.2010    11.1100 c3         1 6N1       0.071000
     30 O1          -3.3090    -1.1480    10.5630 os         1 6N1      -0.261000
     31 C14         -3.5950    -0.9400     9.1770 c3         1 6N1       0.071000
     32 C15         -2.2930    -1.0120     8.3760 c3         1 6N1      -0.132000
     33 H8           0.4930     0.8590     8.3530 h1         1 6N1       0.060500
     34 H12          0.4470    -0.9180     8.3900 h1         1 6N1       0.060500
     35 H13         -0.3720     0.4830    10.6750 h1         1 6N1       0.057250
     36 H14         -0.6280    -1.2480    10.4390 h1         1 6N1       0.057250
     37 H15         -2.1980    -0.4400    12.1490 h1         1 6N1       0.057750
     38 H16         -2.7910     0.7990    11.0010 h1         1 6N1       0.057750
     39 H17         -4.2670    -1.7000     8.7970 h1         1 6N1       0.057750
     40 H18         -4.0450     0.0430     9.0960 h1         1 6N1       0.057750
     41 H19         -2.4370    -0.7750     7.3290 h1         1 6N1       0.057250
     42 H20         -1.8270    -1.9860     8.4670 h1         1 6N1       0.057250
     43 HN3         -0.4430     0.6680    -4.3070 hn         1 6N1       0.101000
@<TRIPOS>BOND
     1     1     2 1   
     2     1     7 1   
     3     1     9 1   
     4     2     3 1   
     5     2    16 1   
     6     3     4 1   
     7     3    17 1   
     8     4     6 1   
     9     4    13 1   
    10     5     6 1   
    11     5    12 1   
    12     5    18 1   
    13     6     7 1   
    14     7    19 1   
    15     8     9 1   
    16     9    10 1   
    17     9    20 1   
    18    10    11 1   
    19    10    20 1   
    20    10    22 1   
    21    11    21 1   
    22    11    22 1   
    23    11    43 1   
    24    12    13 1   
    25    12    14 1   
    26    14    15 1   
    27    14    23 1   
    28    15    24 1   
    29    15    25 1   
    30    15    26 1   
    31    26    27 1   
    32    26    33 1   
    33    26    34 1   
    34    27    28 1   
    35    27    32 1   
    36    28    29 1   
    37    28    35 1   
    38    28    36 1   
    39    29    30 1   
    40    29    37 1   
    41    29    38 1   
    42    30    31 1   
    43    31    32 1   
    44    31    39 1   
    45    31    40 1   
    46    32    41 1   
    47    32    42 1   
@<TRIPOS>SUBSTRUCTURE
     1 6N1         1 TEMP              0 ****  ****    0 ROOT
