@<TRIPOS>MOLECULE
molecule
   44    46     1     0     0
SMALL
bcc


@<TRIPOS>ATOM
      1 N1           0.0000     0.0000     0.0000 nz         1 6N2      -1.025600
      2 C2           4.2080    -0.5310    -2.1730 ca         1 6N2      -0.110000
      3 N3           7.5560     0.6390    -0.9640 na         1 6N2      -0.182300
      4 C4           6.2260     0.3380    -1.2210 ca         1 6N2      -0.156200
      5 C5           7.5820     1.4570     0.1280 cc         1 6N2       0.553700
      6 C6          10.0340     1.6780     0.1230 c3         1 6N2       0.113800
      7 C            1.3760     0.0000     0.0000 c2         1 6N2       0.616100
      8 N            2.0270     0.0000     1.1290 n2         1 6N2      -0.715100
      9 N2           2.0640     0.0010    -1.1920 nu         1 6N2      -0.769600
     10 C1           3.4590     0.1200    -1.1950 ca         1 6N2       0.083600
     11 C13          4.0870     0.8830    -0.2270 ca         1 6N2      -0.151000
     12 C12          5.4790     0.9990    -0.2320 ca         1 6N2       0.119400
     13 C3           5.5830    -0.4270    -2.1820 ca         1 6N2      -0.047000
     14 N6           6.3620     1.6630     0.5600 nd         1 6N2      -0.599100
     15 H1          -0.5580    -0.8290    -0.0470 hn         1 6N2       0.547467
     16 H2           0.8300    -0.0160    -0.5590 hn         1 6N2       0.547467
     17 H3           3.7070    -1.1200    -2.9320 ha         1 6N2       0.161000
     18 H4           7.3750    -0.1620    -0.3930 hn         1 6N2       0.259700
     19 H5           8.8320     1.2520     1.3760 hn         1 6N2       0.345800
     20 H6          10.1870     0.6060     0.0830 h1         1 6N2       0.068200
     21 H7           9.5250     2.0490    -0.7580 h1         1 6N2       0.068200
     22 H9           3.0280     0.0060     1.0980 hn         1 6N2       0.499400
     23 H10          1.5890     0.4080    -1.9730 hn         1 6N2       0.459800
     24 H11          3.5010     1.3930     0.5270 ha         1 6N2       0.155000
     25 H12          6.1560    -0.9530    -2.9360 ha         1 6N2       0.173000
     26 C7          11.1240     2.3770     0.9380 c3         1 6N2       0.187800
     27 N5          12.4400     2.0730     0.3610 n3         1 6N2      -0.721600
     28 C9          13.4870     2.9110     0.9650 c3         1 6N2       0.117300
     29 C10         14.8460     2.5190     0.3790 c3         1 6N2       0.140400
     30 O1          14.8020     2.6510    -1.0440 os         1 6N2      -0.417600
     31 C14         13.7940     1.8490    -1.6660 c3         1 6N2       0.140400
     32 C15         12.4240     2.2330    -1.1000 c3         1 6N2       0.117300
     33 H8          11.1190     1.9460     1.9320 h1         1 6N2       0.054700
     34 H13         10.9280     3.4410     1.0000 h1         1 6N2       0.054700
     35 H14         13.2840     3.9640     0.8180 h1         1 6N2       0.045950
     36 H15         13.5120     2.6770     2.0220 h1         1 6N2       0.045950
     37 H16         15.0670     1.4920     0.6440 h1         1 6N2       0.057450
     38 H17         15.6170     3.1710     0.7730 h1         1 6N2       0.057450
     39 H18         13.8030     2.0300    -2.7340 h1         1 6N2       0.057450
     40 H19         13.9900     0.8020    -1.4670 h1         1 6N2       0.057450
     41 H20         11.6700     1.5780    -1.5200 h1         1 6N2       0.045950
     42 H21         12.2000     3.2610    -1.3580 h1         1 6N2       0.045950
     43 H131        -0.3490     0.7600     0.5500 hn         1 6N2       0.547467
     44 N4           8.7230     1.9810     0.6990 nu         1 6N2      -0.653200
@<TRIPOS>BOND
     1     6    44 1
     2    44     5 1
     3     5    14 2
     4     5     3 1
     5    14    12 1
     6     3     4 1
     7    12     4 ar
     8    12    11 ar
     9     4    13 ar
    10    11    10 ar
    11    13     2 ar
    12    10     2 ar
    13    10     9 1
    14     9     7 1
    15     7     8 2
    16     7     1 1
    17     1    15 1
    18     1    16 1
    19     2    17 1
    20     3    18 1
    21    44    19 1
    22     6    20 1
    23     6    21 1
    24     8    22 1
    25     9    23 1
    26    11    24 1
    27    13    25 1
    28     6    26 1
    29    26    27 1
    30    27    28 1
    31    28    29 1
    32    29    30 1
    33    30    31 1
    34    31    32 1
    35    32    27 1
    36    26    33 1
    37    26    34 1
    38    28    35 1
    39    28    36 1
    40    29    37 1
    41    29    38 1
    42    31    39 1
    43    31    40 1
    44    32    41 1
    45    32    42 1
    46    43     1 1
@<TRIPOS>SUBSTRUCTURE
     1 6N2         1 TEMP              0 ****  ****    0 ROOT
