@<TRIPOS>MOLECULE
6N2
   44    47     1     0     0
SMALL
bcc


@<TRIPOS>ATOM
      1 N1           0.0000     0.0000     0.0000 nz         1 6N2       0.378000
      2 C2           4.2080    -0.5310    -2.1730 ca         1 6N2      -0.117000
      3 N3           7.5560     0.6390    -0.9640 na         1 6N2       0.047000
      4 C4           6.2260     0.3380    -1.2210 ca         1 6N2      -0.150000
      5 C5           7.5820     1.4570     0.1280 c2         1 6N2      -0.085000
      6 C6          10.0340     1.6780     0.1230 c3         1 6N2      -0.136000
      7 C            1.3760     0.0000     0.0000 c3         1 6N2      -0.255000
      8 N            2.0270     0.0000     1.1290 n2         1 6N2      -0.019000
      9 N2           2.0640     0.0010    -1.1920 nu         1 6N2       0.172000
     10 C1           3.4590     0.1200    -1.1950 ca         1 6N2      -0.134000
     11 C13          4.0870     0.8830    -0.2270 ca         1 6N2      -0.031000
     12 C12          5.4790     0.9990    -0.2320 ca         1 6N2      -0.067000
     13 C3           5.5830    -0.4270    -2.1820 ca         1 6N2      -0.026000
     14 N6           6.3620     1.6630     0.5600 n2         1 6N2      -0.099000
     15 H1          -0.6360    -0.7280    -0.2600 hn         1 6N2       0.107000
     16 H2           0.8100    -0.0130    -0.5880 DU         1 6N2       0.214000
     17 H3           3.8280    -0.6930    -3.1740 ha         1 6N2       0.124000
     18 H4           7.2980    -0.1300    -0.3780 hn         1 6N2       0.141000
     19 H5           8.8560     1.2870     1.4080 hn         1 6N2       0.057000
     20 H6          10.1890     0.6070     0.0650 h1         1 6N2       0.073500
     21 H7          10.0840     2.1460    -0.8530 h1         1 6N2       0.073500
     22 H9           1.5280    -0.0010     1.9960 hn         1 6N2       0.118000
     23 H10          1.5670    -0.0840    -2.0560 hn         1 6N2       0.103000
     24 H11          3.5020     1.3880     0.5310 ha         1 6N2       0.132000
     25 H12          6.1600    -0.9360    -2.9450 ha         1 6N2       0.129000
     26 C7          11.1240     2.3770     0.9380 c3         1 6N2      -0.076000
     27 N5          12.4400     2.0730     0.3610 n3         1 6N2      -0.067000
     28 C9          13.4870     2.9110     0.9650 c3         1 6N2      -0.136500
     29 C10         14.8460     2.5190     0.3790 c3         1 6N2       0.062500
     30 O1          14.8020     2.6510    -1.0440 os         1 6N2      -0.256000
     31 C14         13.7940     1.8490    -1.6660 c3         1 6N2       0.062500
     32 C15         12.4240     2.2330    -1.1000 c3         1 6N2      -0.136500
     33 H8          11.1100     2.0140     1.9590 h1         1 6N2       0.059000
     34 H13         10.9600     3.4480     0.9320 h1         1 6N2       0.059000
     35 H14         13.4960     2.7670     2.0390 h1         1 6N2       0.063000
     36 H15         13.2850     3.9500     0.7370 h1         1 6N2       0.063000
     37 H16         15.0070     1.4770     0.6270 h1         1 6N2       0.053750
     38 H17         15.6330     3.1290     0.8070 h1         1 6N2       0.053750
     39 H18         14.0030     0.7880    -1.7160 h1         1 6N2       0.053750
     40 H19         13.7730     2.2190    -2.6840 h1         1 6N2       0.053750
     41 H20         11.5540     1.8220    -1.5980 h1         1 6N2       0.063000
     42 H21         12.4780     3.3090    -1.2120 h1         1 6N2       0.063000
     43 H131        -0.2530     0.6830     0.6860 hn         1 6N2       0.107000
     44 N4           8.7230     1.9810     0.6990 nu         1 6N2       0.103000
@<TRIPOS>BOND
     1     1     7 1   
     2     1    15 1   
     3     1    16 1   
     4     1    43 1   
     5     2    10 1   
     6     2    13 1   
     7     2    17 1   
     8     3     4 1   
     9     3     5 1   
    10     3    18 1   
    11     4    12 1   
    12     4    13 1   
    13     5    14 1   
    14     5    44 1   
    15     6    20 1   
    16     6    21 1   
    17     6    26 1   
    18     6    44 1   
    19     7     8 1   
    20     7     9 1   
    21     7    16 1   
    22     8    22 1   
    23     9    10 1   
    24     9    23 1   
    25    10    11 1   
    26    11    12 1   
    27    11    24 1   
    28    12    14 1   
    29    13    25 1   
    30    19    44 1   
    31    26    27 1   
    32    26    33 1   
    33    26    34 1   
    34    27    28 1   
    35    27    32 1   
    36    28    29 1   
    37    28    35 1   
    38    28    36 1   
    39    29    30 1   
    40    29    37 1   
    41    29    38 1   
    42    30    31 1   
    43    31    32 1   
    44    31    39 1   
    45    31    40 1   
    46    32    41 1   
    47    32    42 1   
@<TRIPOS>SUBSTRUCTURE
     1 6N2         1 TEMP              0 ****  ****    0 ROOT
