@<TRIPOS>MOLECULE
6N3
   71    76     1     0     0
SMALL
bcc


@<TRIPOS>ATOM
      1 C1           0.0000     0.0000     0.0000 c3         1 6N3      -0.050700
      2 C6           3.9240    -4.4960     2.0830 ca         1 6N3       0.579200
      3 C7           5.3110    -4.6210     2.1480 ca         1 6N3      -0.303300
      4 C9           5.4850    -2.4650     1.1490 ca         1 6N3      -0.369900
      5 C5           4.0830    -2.4020     1.1190 ca         1 6N3       0.714600
      6 C4           2.0400    -1.3080     0.6090 c3         1 6N3       0.191400
      7 C3           1.5300     0.0000     0.0000 c3         1 6N3      -0.033400
      8 C12          9.8180    -0.8290    -0.2750 c3         1 6N3      -0.052200
      9 C2          -0.5100     0.0000     1.4420 c3         1 6N3       0.001400
     10 O4          -0.1270    -7.4100     6.0480 o          1 6N3      -0.887300
     11 O3          -1.3610    -5.5770     6.0450 o          1 6N3      -0.887300
     12 C25          0.7960    -5.6070     4.8430 cx         1 6N3      -0.085700
     13 C22          2.0220    -6.4430     4.4760 cx         1 6N3      -0.155700
     14 C21          3.2980    -5.7020     4.0200 c3         1 6N3       0.181800
     15 C23          0.9630    -6.1080     3.4080 cx         1 6N3      -0.155700
     16 C24          1.6870    -5.1930     2.3970 c3         1 6N3       0.181800
     17 N2           3.1240    -5.5220     2.5560 nh         1 6N3      -0.488300
     18 N            3.3600    -3.4070     1.5820 nb         1 6N3      -0.717000
     19 C8           6.1020    -3.6060     1.6810 ca         1 6N3       0.000000
     20 O            3.4690    -1.3080     0.6090 os         1 6N3      -0.384100
     21 C           -0.5090     1.2500    -0.7210 c3         1 6N3       0.001400
     22 O1           5.7490    -0.3610     0.1790 o          1 6N3      -0.644100
     23 N1           7.6400    -1.4190     0.6680 ns         1 6N3      -0.220900
     24 C11          8.4450    -0.3080     0.1560 c3         1 6N3       0.034700
     25 C16          8.6200     0.7430     1.2540 c3         1 6N3      -0.052200
     26 C15          9.3260     0.1120     2.4550 c3         1 6N3      -0.023900
     27 C17          9.4620     1.9040     0.7190 c3         1 6N3      -0.026400
     28 C18         10.8340     1.3830     0.2880 c3         1 6N3       0.170800
     29 O2          11.6190     2.4670    -0.2110 oh         1 6N3      -0.589800
     30 C20         10.6590     0.3320    -0.8090 c3         1 6N3      -0.026400
     31 C19         11.5400     0.7520     1.4900 c3         1 6N3      -0.051400
     32 C14         10.6990    -0.4090     2.0250 c3         1 6N3      -0.035700
     33 C13         10.5240    -1.4590     0.9270 c3         1 6N3      -0.023900
     34 H1          -0.3610    -0.8840    -0.5110 hc         1 6N3       0.026700
     35 H2           5.7600    -5.5140     2.5640 ha         1 6N3       0.127000
     36 H3           1.6790    -2.1440     0.0230 h1         1 6N3       0.015700
     37 H4           1.6790    -1.3970     1.6270 h1         1 6N3       0.015700
     38 H5           1.8920     0.0890    -1.0170 hc         1 6N3       0.023700
     39 H6           1.8920     0.8360     0.5860 hc         1 6N3       0.023700
     40 H7           9.6940    -1.5730    -1.0530 hc         1 6N3       0.042200
     41 H8          -1.4880     0.4640     1.4790 hc         1 6N3       0.004533
     42 H9           0.1770     0.5560     2.0680 hc         1 6N3       0.004533
     43 H10         -0.5800    -1.0200     1.8000 hc         1 6N3       0.004533
     44 H12          0.9920    -4.5510     4.9800 hc         1 6N3       0.037700
     45 H13          2.0430    -7.5010     4.7090 hc         1 6N3       0.083700
     46 H14          3.3690    -4.7390     4.5120 h1         1 6N3       0.018700
     47 H15          4.1760    -6.3030     4.2240 h1         1 6N3       0.018700
     48 H16          0.4260    -6.9890     3.0790 hc         1 6N3       0.083700
     49 H17          1.5100    -4.1520     2.6380 h1         1 6N3       0.018700
     50 H18          1.3600    -5.4140     1.3880 h1         1 6N3       0.018700
     51 H19          7.1820    -3.6840     1.7200 ha         1 6N3       0.096000
     52 H20         -1.5920     1.2360    -0.7480 hc         1 6N3       0.004533
     53 H21         -0.1720     2.1340    -0.1930 hc         1 6N3       0.004533
     54 H22         -0.1230     1.2650    -1.7330 hc         1 6N3       0.004533
     55 H23          8.0880    -2.2460     1.0090 hn         1 6N3       0.184500
     56 H24          7.9450     0.1390    -0.6950 h1         1 6N3       0.060700
     57 H25          7.6480     1.1120     1.5590 hc         1 6N3       0.042200
     58 H26          8.7310    -0.7090     2.8340 hc         1 6N3       0.018200
     59 H27          9.4500     0.8560     3.2330 hc         1 6N3       0.018200
     60 H28          8.9620     2.3500    -0.1320 hc         1 6N3       0.024450
     61 H29          9.5850     2.6480     1.4960 hc         1 6N3       0.024450
     62 H30         11.8130     3.0650     0.4920 ho         1 6N3       0.390000
     63 H31         11.6310    -0.0370    -1.1140 hc         1 6N3       0.024450
     64 H32         10.1600     0.7790    -1.6600 hc         1 6N3       0.024450
     65 H33         12.5120     0.3830     1.1850 hc         1 6N3       0.019200
     66 H34         11.6640     1.4960     2.2680 hc         1 6N3       0.019200
     67 H35         11.1990    -0.8550     2.8760 hc         1 6N3       0.023700
     68 H36          9.9290    -2.2810     1.3060 hc         1 6N3       0.018200
     69 H37         11.4960    -1.8280     0.6230 hc         1 6N3       0.018200
     70 C26         -0.2650    -6.2640     5.6890 c          1 6N3       1.000600
     71 C10          6.2940    -1.3480     0.6340 c          1 6N3       0.619700
@<TRIPOS>BOND
     1     1     7 1   
     2     1     9 1   
     3     1    21 1   
     4     1    34 1   
     5     2     3 ar  
     6     2    17 1   
     7     2    18 ar  
     8     3    19 ar  
     9     3    35 1   
    10     4     5 ar  
    11     4    19 ar  
    12     4    71 1   
    13     5    18 ar  
    14     5    20 1   
    15     6     7 1   
    16     6    20 1   
    17     6    36 1   
    18     6    37 1   
    19     7    38 1   
    20     7    39 1   
    21     8    24 1   
    22     8    30 1   
    23     8    33 1   
    24     8    40 1   
    25     9    41 1   
    26     9    42 1   
    27     9    43 1   
    28    10    70 1   
    29    11    70 1   
    30    12    13 1   
    31    12    15 1   
    32    12    44 1   
    33    12    70 1   
    34    13    14 1   
    35    13    15 1   
    36    13    45 1   
    37    14    17 1   
    38    14    46 1   
    39    14    47 1   
    40    15    16 1   
    41    15    48 1   
    42    16    17 1   
    43    16    49 1   
    44    16    50 1   
    45    19    51 1   
    46    21    52 1   
    47    21    53 1   
    48    21    54 1   
    49    22    71 2   
    50    23    24 1   
    51    23    55 1   
    52    23    71 1   
    53    24    25 1   
    54    24    56 1   
    55    25    26 1   
    56    25    27 1   
    57    25    57 1   
    58    26    32 1   
    59    26    58 1   
    60    26    59 1   
    61    27    28 1   
    62    27    60 1   
    63    27    61 1   
    64    28    29 1   
    65    28    30 1   
    66    28    31 1   
    67    29    62 1   
    68    30    63 1   
    69    30    64 1   
    70    31    32 1   
    71    31    65 1   
    72    31    66 1   
    73    32    33 1   
    74    32    67 1   
    75    33    68 1   
    76    33    69 1   
@<TRIPOS>SUBSTRUCTURE
     1 6N3         1 TEMP              0 ****  ****    0 ROOT
