@<TRIPOS>MOLECULE
molecule
   71    76     1     0     0
SMALL
bcc


@<TRIPOS>ATOM
      1 C1           0.0000     0.0000     0.0000 c3         1 6N3      -0.075700
      2 C6           3.9240    -4.4960     2.0830 ca         1 6N3       0.689200
      3 C7           5.3110    -4.6210     2.1480 ca         1 6N3      -0.318300
      4 C9           5.4850    -2.4650     1.1490 ca         1 6N3      -0.346900
      5 C5           4.0830    -2.4020     1.1190 ca         1 6N3       0.738600
      6 C4           2.0400    -1.3080     0.6090 c3         1 6N3       0.137400
      7 C3           1.5300     0.0000     0.0000 c3         1 6N3      -0.078400
      8 C12          9.8180    -0.8290    -0.2750 c3         1 6N3      -0.078700
      9 C2          -0.5100     0.0000     1.4420 c3         1 6N3      -0.089100
     10 O4          -0.1270    -7.4100     6.0480 o          1 6N3      -0.835800
     11 O3          -1.3610    -5.5770     6.0450 o          1 6N3      -0.835800
     12 C25          0.7960    -5.6070     4.8430 cx         1 6N3      -0.122700
     13 C22          2.0220    -6.4430     4.4760 cx         1 6N3      -0.166200
     14 C21          3.2980    -5.7020     4.0200 c3         1 6N3       0.182800
     15 C23          0.9630    -6.1080     3.4080 cx         1 6N3      -0.166200
     16 C24          1.6870    -5.1930     2.3970 c3         1 6N3       0.182800
     17 N2           3.1240    -5.5220     2.5560 nh         1 6N3      -0.687300
     18 N            3.3600    -3.4070     1.5820 nb         1 6N3      -0.823000
     19 C8           6.1020    -3.6060     1.6810 ca         1 6N3      -0.030000
     20 O            3.4690    -1.3080     0.6090 os         1 6N3      -0.404100
     21 C           -0.5090     1.2500    -0.7210 c3         1 6N3      -0.089100
     22 O1           5.7490    -0.3610     0.1790 o          1 6N3      -0.601100
     23 N1           7.6400    -1.4190     0.6680 ns         1 6N3      -0.591900
     24 C11          8.4450    -0.3080     0.1560 c3         1 6N3       0.131700
     25 C16          8.6200     0.7430     1.2540 c3         1 6N3      -0.078700
     26 C15          9.3260     0.1120     2.4550 c3         1 6N3      -0.071400
     27 C17          9.4620     1.9040     0.7190 c3         1 6N3      -0.073900
     28 C18         10.8340     1.3830     0.2880 c3         1 6N3       0.153800
     29 O2          11.6190     2.4670    -0.2110 oh         1 6N3      -0.606800
     30 C20         10.6590     0.3320    -0.8090 c3         1 6N3      -0.073900
     31 C19         11.5400     0.7520     1.4900 c3         1 6N3      -0.099400
     32 C14         10.6990    -0.4090     2.0250 c3         1 6N3      -0.064700
     33 C13         10.5240    -1.4590     0.9270 c3         1 6N3      -0.071400
     34 H1          -0.3610    -0.8840    -0.5110 hc         1 6N3       0.051700
     35 H2           5.7600    -5.5140     2.5640 ha         1 6N3       0.147000
     36 H3           1.6790    -2.1440     0.0230 h1         1 6N3       0.050700
     37 H4           1.6790    -1.3970     1.6270 h1         1 6N3       0.050700
     38 H5           1.8920     0.0890    -1.0170 hc         1 6N3       0.052700
     39 H6           1.8920     0.8360     0.5860 hc         1 6N3       0.052700
     40 H7           9.6940    -1.5730    -1.0530 hc         1 6N3       0.069200
     41 H8          -1.4880     0.4640     1.4790 hc         1 6N3       0.035200
     42 H9           0.1770     0.5560     2.0680 hc         1 6N3       0.035200
     43 H10         -0.5800    -1.0200     1.8000 hc         1 6N3       0.035200
     44 H12          0.9920    -4.5510     4.9800 hc         1 6N3       0.063700
     45 H13          2.0430    -7.5010     4.7090 hc         1 6N3       0.106700
     46 H14          3.3690    -4.7390     4.5120 h1         1 6N3       0.049950
     47 H15          4.1760    -6.3030     4.2240 h1         1 6N3       0.049950
     48 H16          0.4260    -6.9890     3.0790 hc         1 6N3       0.106700
     49 H17          1.5100    -4.1520     2.6380 h1         1 6N3       0.049950
     50 H18          1.3600    -5.4140     1.3880 h1         1 6N3       0.049950
     51 H19          7.1820    -3.6840     1.7200 ha         1 6N3       0.124000
     52 H20         -1.5920     1.2360    -0.7480 hc         1 6N3       0.035200
     53 H21         -0.1720     2.1340    -0.1930 hc         1 6N3       0.035200
     54 H22         -0.1230     1.2650    -1.7330 hc         1 6N3       0.035200
     55 H23          8.0880    -2.2460     1.0090 hn         1 6N3       0.311500
     56 H24          7.9450     0.1390    -0.6950 h1         1 6N3       0.081700
     57 H25          7.6480     1.1120     1.5590 hc         1 6N3       0.069200
     58 H26          8.7310    -0.7090     2.8340 hc         1 6N3       0.043200
     59 H27          9.4500     0.8560     3.2330 hc         1 6N3       0.043200
     60 H28          8.9620     2.3500    -0.1320 hc         1 6N3       0.051950
     61 H29          9.5850     2.6480     1.4960 hc         1 6N3       0.051950
     62 H30         11.8130     3.0650     0.4920 ho         1 6N3       0.400000
     63 H31         11.6310    -0.0370    -1.1140 hc         1 6N3       0.051950
     64 H32         10.1600     0.7790    -1.6600 hc         1 6N3       0.051950
     65 H33         12.5120     0.3830     1.1850 hc         1 6N3       0.043700
     66 H34         11.6640     1.4960     2.2680 hc         1 6N3       0.043700
     67 H35         11.1990    -0.8550     2.8760 hc         1 6N3       0.048700
     68 H36          9.9290    -2.2810     1.3060 hc         1 6N3       0.043200
     69 H37         11.4960    -1.8280     0.6230 hc         1 6N3       0.043200
     70 C26         -0.2650    -6.2640     5.6890 c          1 6N3       0.913600
     71 C10          6.2940    -1.3480     0.6340 c          1 6N3       0.686700
@<TRIPOS>BOND
     1    30     8 1   
     2    30    28 1   
     3    29    28 1   
     4     8    33 1   
     5     8    24 1   
     6    28    31 1   
     7    28    27 1   
     8    33    32 1   
     9    24    23 1   
    10    24    25 1   
    11    31    32 1   
    12    27    25 1   
    13    22    71 2   
    14     9     1 1   
    15    23    71 1   
    16    32    26 1   
    17    71     4 1   
    18    25    26 1   
    19    20     6 1   
    20    20     5 1   
    21     7     6 1   
    22     7     1 1   
    23     1    21 1   
    24     4     5 ar  
    25     4    19 ar  
    26     5    18 ar  
    27    19     3 ar  
    28    18     2 ar  
    29     3     2 ar  
    30     2    17 1   
    31    16    17 1   
    32    16    15 1   
    33    17    14 1   
    34    15    13 1   
    35    15    12 1   
    36    10    70 1   
    37    13    14 1   
    38    13    12 1   
    39    12    70 1   
    40    70    11 1   
    41     1    34 1   
    42     3    35 1   
    43     6    36 1   
    44     6    37 1   
    45     7    38 1   
    46     7    39 1   
    47     8    40 1   
    48     9    41 1   
    49     9    42 1   
    50     9    43 1   
    51    12    44 1   
    52    13    45 1   
    53    14    46 1   
    54    14    47 1   
    55    15    48 1   
    56    16    49 1   
    57    16    50 1   
    58    19    51 1   
    59    21    52 1   
    60    21    53 1   
    61    21    54 1   
    62    23    55 1   
    63    24    56 1   
    64    25    57 1   
    65    26    58 1   
    66    26    59 1   
    67    27    60 1   
    68    27    61 1   
    69    29    62 1   
    70    30    63 1   
    71    30    64 1   
    72    31    65 1   
    73    31    66 1   
    74    32    67 1   
    75    33    68 1   
    76    33    69 1   
@<TRIPOS>SUBSTRUCTURE
     1 6N3         1 TEMP              0 ****  ****    0 ROOT
