@<TRIPOS>MOLECULE
molecule
   23    24     1     0     0
SMALL
bcc


@<TRIPOS>ATOM
      1 C1           0.0000     0.0000     0.0000 ca         1 6N4      -0.144000
      2 C2           1.3870     0.0000     0.0000 ca         1 6N4      -0.113000
      3 C3           2.0860     0.0000     1.1890 ca         1 6N4      -0.128000
      4 C4           1.3990    -0.0010     2.3940 ca         1 6N4      -0.087200
      5 C5          -0.0060    -0.0000     2.4000 ca         1 6N4       0.100400
      6 C6          -0.6990     0.0000     1.1870 ca         1 6N4      -0.072000
      7 N7          -0.4010    -0.0010     3.7000 nc         1 6N4      -0.613100
      8 C8           0.6530    -0.0030     4.4790 cd         1 6N4       0.448700
      9 N9           1.7900    -0.0020     3.7230 na         1 6N4      -0.250300
     10 S10          0.6080    -0.0040     6.2410 ss         1 6N4      -0.196300
     11 C11         -1.1820    -0.0040     6.5110 c3         1 6N4       0.007700
     12 C12         -1.4710    -0.0060     8.0130 c3         1 6N4       0.150400
     13 O13         -2.8840    -0.0060     8.2260 oh         1 6N4      -0.602800
     14 H1          -0.5380     0.0000    -0.9410 ha         1 6N4       0.134000
     15 H2           1.9250     0.0000    -0.9400 ha         1 6N4       0.133000
     16 H6          -1.7820    -0.0000     1.1790 ha         1 6N4       0.143000
     17 H3           3.1690    -0.0000     1.1820 ha         1 6N4       0.127000
     18 H9           2.7300    -0.0030     4.0650 hn         1 6N4       0.309700
     19 H111        -1.6150    -0.8890     6.0590 h1         1 6N4       0.093700
     20 H112        -1.6150     0.8800     6.0600 h1         1 6N4       0.093700
     21 H121        -1.0380    -0.8910     8.4630 h1         1 6N4       0.028700
     22 H122        -1.0380     0.8780     8.4640 h1         1 6N4       0.028700
     23 H13         -3.0630    -0.0070     9.1520 ho         1 6N4       0.408000
@<TRIPOS>BOND
     1     1     2 ar
     2     1     6 ar
     3     2     3 ar
     4     3     4 ar
     5     4     5 ar
     6     4     9 1
     7     5     6 ar
     8     5     7 1
     9     7     8 2
    10     8     9 1
    11     8    10 1
    12    10    11 1
    13    11    12 1
    14    12    13 1
    15     1    14 1
    16     2    15 1
    17     6    16 1
    18     3    17 1
    19     9    18 1
    20    11    19 1
    21    11    20 1
    22    12    21 1
    23    12    22 1
    24    13    23 1
@<TRIPOS>SUBSTRUCTURE
     1 6N4         1 TEMP              0 ****  ****    0 ROOT
