@<TRIPOS>MOLECULE
6N4
   23    24     1     0     0
SMALL
bcc


@<TRIPOS>ATOM
      1 C1          0.1250    0.0980   -0.0780 ca        1 6N4     -0.151000
      2 C2          1.5170   -0.0800    0.0230 ca        1 6N4     -0.115000
      3 C3          2.1530   -0.1850    1.2510 ca        1 6N4     -0.134000
      4 C4          1.3540   -0.1060    2.3970 ca        1 6N4     -0.069200
      5 C5         -0.0860    0.0790    2.3060 ca        1 6N4      0.077400
      6 C6         -0.6870    0.1790    1.0430 ca        1 6N4     -0.073000
      7 N7         -0.6310    0.1230    3.6020 nc        1 6N4     -0.583100
      8 C8          0.4170   -0.0270    4.4440 cd        1 6N4      0.405700
      9 N9          1.6460   -0.1660    3.7620 na        1 6N4     -0.268300
     10 S10         0.3640   -0.0520    6.1420 ss        1 6N4     -0.149300
     11 C11        -1.3630    0.0990    6.5160 c3        1 6N4     -0.020300
     12 C12        -1.4430    0.2220    8.0240 c3        1 6N4      0.141400
     13 O13        -2.3620   -0.7620    8.4730 oh        1 6N4     -0.594800
     14 H1         -0.3270    0.1750   -1.0780 ha        1 6N4      0.132000
     15 H2          2.1140   -0.1390   -0.8990 ha        1 6N4      0.132000
     16 H6         -1.7730    0.3190    0.9550 ha        1 6N4      0.147000
     17 H3          3.2400   -0.3240    1.3220 ha        1 6N4      0.135000
     18 H9          2.5300   -0.3080    4.1720 hn        1 6N4      0.311700
     19 H111       -1.9280   -0.8000    6.1620 h1        1 6N4      0.101200
     20 H112       -1.8040    0.9930    6.0150 h1        1 6N4      0.101200
     21 H121       -0.4360    0.0460    8.5000 h1        1 6N4      0.035200
     22 H122       -1.8040    1.2440    8.3190 h1        1 6N4      0.035200
     23 H13        -2.4010   -0.6880    9.4340 ho        1 6N4      0.405000
@<TRIPOS>BOND
     1    1    2 ar  
     2    1    6 ar  
     3    1   14 1   
     4    2    3 ar  
     5    2   15 1   
     6    3    4 ar  
     7    3   17 1   
     8    4    5 ar  
     9    4    9 1   
    10    5    6 ar  
    11    5    7 1   
    12    6   16 1   
    13    7    8 2   
    14    8    9 1   
    15    8   10 1   
    16    9   18 1   
    17   10   11 1   
    18   11   12 1   
    19   11   19 1   
    20   11   20 1   
    21   12   13 1   
    22   12   21 1   
    23   12   22 1   
    24   13   23 1   
@<TRIPOS>SUBSTRUCTURE
     1 6N4         1 TEMP              0 ****  ****    0 ROOT
