@<TRIPOS>MOLECULE
molecule
   88    91     1     0     0
SMALL
bcc


@<TRIPOS>ATOM
      1 C4           0.0000     0.0000     0.0000 ca         1 6N5      -0.122500
      2 C5           1.3830     0.0000     0.0000 ca         1 6N5      -0.122000
      3 C6           2.0740     0.0000     1.1970 ca         1 6N5      -0.084300
      4 C7           3.5810    -0.0000     1.1960 c3         1 6N5      -0.051100
      5 C8           4.0900     1.4430     1.1970 c3         1 6N5       0.119700
      6 C10          6.0450     0.8220     2.6240 c3         1 6N5      -0.093700
      7 C24          3.1280     4.1300    -1.3530 c3         1 6N5       0.047700
      8 C58          0.4580    11.7110    -4.3870 cc         1 6N5      -0.047300
      9 C57         -0.6430    11.9580    -5.1490 cd         1 6N5      -0.101800
     10 C56         -1.0670    13.1410    -5.9130 cf         1 6N5      -0.076200
     11 C55         -2.2090    13.1410    -6.5920 c2         1 6N5      -0.178200
     12 C54         -3.0900    11.9170    -6.5850 c3         1 6N5      -0.024000
     13 C53         -2.6550    10.7010    -5.8000 c2         1 6N5      -0.060200
     14 C52         -1.4840    10.7400    -5.1220 cd         1 6N5      -0.093000
     15 C51         -0.7870     9.7630    -4.2850 cd         1 6N5      -0.116000
     16 C50          0.3830    10.3550    -3.8530 cc         1 6N5      -0.133600
     17 O61          2.3370    10.3690    -2.5800 o          1 6N5      -0.617100
     18 N28          1.2610     8.4270    -2.6350 ns         1 6N5      -0.564900
     19 C27          2.1960     7.8290    -1.6780 c3         1 6N5       0.047700
     20 C38          1.7150     8.1080    -0.2530 c3         1 6N5      -0.108100
     21 O39          1.5940     5.8290    -2.7770 o          1 6N5      -0.609100
     22 N25          3.0630     5.5770    -1.1340 ns         1 6N5      -0.564900
     23 C40          4.1430     3.8260    -2.4570 c3         1 6N5      -0.041100
     24 C41          3.6570     4.4060    -3.7600 ca         1 6N5      -0.113300
     25 C48          4.0050     5.6960    -4.1140 ca         1 6N5      -0.080000
     26 C47          3.5610     6.2290    -5.3080 ca         1 6N5      -0.178000
     27 C44          2.7640     5.4690    -6.1530 ca         1 6N5       0.143100
     28 O45          2.3260     5.9920    -7.3290 os         1 6N5      -0.329900
     29 C46          1.5110     5.1520    -8.1480 c3         1 6N5       0.129700
     30 C43          2.4170     4.1750    -5.7950 ca         1 6N5      -0.178000
     31 C42          2.8680     3.6430    -4.6030 ca         1 6N5      -0.080000
     32 N22          3.6790     2.1070    -0.0430 ns         1 6N5      -0.576900
     33 C3          -0.6910     0.0050     1.1970 ca         1 6N5      -0.126000
     34 C2           0.0010     0.0060     2.3940 ca         1 6N5      -0.122500
     35 C1           1.3830    -0.0000     2.3940 ca         1 6N5      -0.122000
     36 C9           5.6180     1.4430     1.2930 c3         1 6N5       0.132100
     37 O21          6.0990     2.7870     1.2190 oh         1 6N5      -0.578800
     38 C11          5.5500     1.6960     3.7780 c3         1 6N5      -0.084100
     39 C12          7.5720     0.7270     2.6750 c3         1 6N5       0.143400
     40 O13          7.9650     0.0270     3.8570 oh         1 6N5      -0.608800
     41 H1          -0.5420    -0.0010    -0.9380 ha         1 6N5       0.131000
     42 H2           1.9240    -0.0040    -0.9380 ha         1 6N5       0.126500
     43 H3           3.9420    -0.5110     2.0800 hc         1 6N5       0.058700
     44 H4           3.9410    -0.5100     0.3110 hc         1 6N5       0.058700
     45 H5           3.6750     1.9720     2.0450 h1         1 6N5       0.103700
     46 H6           5.6180    -0.1690     2.7130 hc         1 6N5       0.061700
     47 H7           2.1520     3.7660    -1.6500 h1         1 6N5       0.096700
     48 H8           1.3930    13.6020    -4.6840 hc         1 6N5       0.048700
     49 H9           2.5160    12.2510    -4.4790 hc         1 6N5       0.048700
     50 H10          1.6480    12.8990    -3.0810 hc         1 6N5       0.048700
     51 H12         -2.5170    14.0270    -7.1350 ha         1 6N5       0.136000
     52 H13         -4.0580    12.2180    -6.2020 hc         1 6N5       0.064700
     53 H14         -3.2200    11.6070    -7.6150 hc         1 6N5       0.064700
     54 H15         -3.3470     9.8830    -5.6400 ha         1 6N5       0.138000
     55 H16         -0.7960     8.7140    -4.5550 ha         1 6N5       0.151000
     56 H17          0.5040     7.8830    -3.0010 hn         1 6N5       0.336500
     57 H18          3.1800     8.2600    -1.8180 h1         1 6N5       0.094700
     58 H19          2.5630     8.1070     0.4210 hc         1 6N5       0.050033
     59 H20          1.2280     9.0750    -0.2190 hc         1 6N5       0.050033
     60 H21          1.0130     7.3400     0.0480 hc         1 6N5       0.050033
     61 H22          3.6210     6.0010    -0.4190 hn         1 6N5       0.339500
     62 H23          5.0990     4.2670    -2.2000 hc         1 6N5       0.050700
     63 H24          4.2560     2.7540    -2.5590 hc         1 6N5       0.050700
     64 H25          4.6270     6.2890    -3.4540 ha         1 6N5       0.125500
     65 H26          3.8340     7.2400    -5.5850 ha         1 6N5       0.138000
     66 H27          0.6180     4.8720    -7.6020 h1         1 6N5       0.039700
     67 H28          1.2310     5.6870    -9.0470 h1         1 6N5       0.039700
     68 H29          2.0640     4.2600    -8.4150 h1         1 6N5       0.039700
     69 H30          1.7980     3.5790    -6.4540 ha         1 6N5       0.138000
     70 H31          2.5970     2.6330    -4.3230 ha         1 6N5       0.125500
     71 H32          3.5420     1.5690    -0.8760 hn         1 6N5       0.311500
     72 H33         -1.7750     0.0070     1.1970 ha         1 6N5       0.131000
     73 H34         -0.5410     0.0080     3.3320 ha         1 6N5       0.131000
     74 H35          1.9250     0.0000     3.3330 ha         1 6N5       0.126500
     75 H36          6.0320     0.8660     0.4760 h1         1 6N5       0.025700
     76 H37          6.8650     2.8170     0.6700 ho         1 6N5       0.394000
     77 H38          5.9600     1.3290     4.7110 hc         1 6N5       0.046367
     78 H39          5.8720     2.7190     3.6200 hc         1 6N5       0.046367
     79 H40          4.4690     1.6610     3.8200 hc         1 6N5       0.046367
     80 H41          7.9290     0.1920     1.8030 h1         1 6N5       0.021200
     81 H42          7.9960     1.7230     2.6870 h1         1 6N5       0.021200
     82 H43          8.8790    -0.2000     3.7990 ho         1 6N5       0.402000
     83 C23          3.5510     3.4470    -0.0780 c          1 6N5       0.652100
     84 C26          2.2620     6.3410    -1.9030 c          1 6N5       0.652100
     85 O49          3.7770     4.1050     0.9150 o          1 6N5      -0.585100
     86 C60          1.3900     9.7220    -2.9840 c          1 6N5       0.688700
     87 H11         -0.4390    14.0230    -5.9240 ha         1 6N5       0.131000
     88 C59          1.5830    12.6840    -4.1400 c3         1 6N5      -0.028800
@<TRIPOS>BOND
     1     6    36 1   
     2     6    38 1   
     3     6    39 1   
     4    36    37 1   
     5    36     5 1   
     6     4     5 1   
     7     4     3 1   
     8    39    40 1   
     9    35     3 ar  
    10    35    34 ar  
    11     5    32 1   
    12     3     2 ar  
    13    34    33 ar  
    14     2     1 ar  
    15    33     1 ar  
    16    32    83 1   
    17    83    85 2   
    18    83     7 1   
    19    23     7 1   
    20    23    24 1   
    21     7    22 1   
    22    31    24 ar  
    23    31    30 ar  
    24    24    25 ar  
    25    22    84 1   
    26    30    27 ar  
    27    21    84 2   
    28    84    19 1   
    29    25    26 ar  
    30    27    26 ar  
    31    27    28 1   
    32    20    19 1   
    33    19    18 1   
    34    28    29 1   
    35    18    86 1   
    36    17    86 2   
    37    86    16 1   
    38    16    15 2   
    39    16     8 1   
    40    15    14 1   
    41     8    88 1   
    42     8     9 2   
    43    14     9 1   
    44    14    13 2   
    45     9    10 1   
    46    13    12 1   
    47    10    11 2   
    48    12    11 1   
    49     1    41 1   
    50     2    42 1   
    51     4    43 1   
    52     4    44 1   
    53     5    45 1   
    54     6    46 1   
    55     7    47 1   
    56    88    48 1   
    57    88    49 1   
    58    88    50 1   
    59    10    87 1   
    60    11    51 1   
    61    12    52 1   
    62    12    53 1   
    63    13    54 1   
    64    15    55 1   
    65    18    56 1   
    66    19    57 1   
    67    20    58 1   
    68    20    59 1   
    69    20    60 1   
    70    22    61 1   
    71    23    62 1   
    72    23    63 1   
    73    25    64 1   
    74    26    65 1   
    75    29    66 1   
    76    29    67 1   
    77    29    68 1   
    78    30    69 1   
    79    31    70 1   
    80    32    71 1   
    81    33    72 1   
    82    34    73 1   
    83    35    74 1   
    84    36    75 1   
    85    37    76 1   
    86    38    77 1   
    87    38    78 1   
    88    38    79 1   
    89    39    80 1   
    90    39    81 1   
    91    40    82 1   
@<TRIPOS>SUBSTRUCTURE
     1 6N5         1 TEMP              0 ****  ****    0 ROOT
