@<TRIPOS>MOLECULE
6N5
   88    91     1     0     0
SMALL
bcc


@<TRIPOS>ATOM
      1 C4           0.0000     0.0000     0.0000 ca         1 6N5      -0.093500
      2 C5           1.3830     0.0000     0.0000 ca         1 6N5      -0.098000
      3 C6           2.0740     0.0000     1.1970 ca         1 6N5      -0.096300
      4 C7           3.5810    -0.0000     1.1960 c3         1 6N5       0.013900
      5 C8           4.0900     1.4430     1.1970 c3         1 6N5       0.002700
      6 C10          6.0450     0.8220     2.6240 c3         1 6N5      -0.090700
      7 C24          3.1280     4.1300    -1.3530 c3         1 6N5      -0.056300
      8 C58          0.4580    11.7110    -4.3870 cc         1 6N5      -0.047300
      9 C57         -0.6430    11.9580    -5.1490 cd         1 6N5      -0.108800
     10 C56         -1.0670    13.1410    -5.9130 cf         1 6N5      -0.041200
     11 C55         -2.2090    13.1410    -6.5920 c2         1 6N5      -0.165200
     12 C54         -3.0900    11.9170    -6.5850 c3         1 6N5       0.056000
     13 C53         -2.6550    10.7010    -5.8000 c2         1 6N5      -0.026200
     14 C52         -1.4840    10.7400    -5.1220 cd         1 6N5      -0.094000
     15 C51         -0.7870     9.7630    -4.2850 cd         1 6N5      -0.099000
     16 C50          0.3830    10.3550    -3.8530 cc         1 6N5      -0.133600
     17 O61          2.3370    10.3690    -2.5800 o          1 6N5      -0.663100
     18 N28          1.2610     8.4270    -2.6350 ns         1 6N5      -0.170900
     19 C27          2.1960     7.8290    -1.6780 c3         1 6N5      -0.053300
     20 C38          1.7150     8.1080    -0.2530 c3         1 6N5      -0.012100
     21 O39          1.5940     5.8290    -2.7770 o          1 6N5      -0.655100
     22 N25          3.0630     5.5770    -1.1340 ns         1 6N5      -0.161900
     23 C40          4.1430     3.8260    -2.4570 c3         1 6N5       0.027900
     24 C41          3.6570     4.4060    -3.7600 ca         1 6N5      -0.128300
     25 C48          4.0050     5.6960    -4.1140 ca         1 6N5      -0.049000
     26 C47          3.5610     6.2290    -5.3080 ca         1 6N5      -0.164000
     27 C44          2.7640     5.4690    -6.1530 ca         1 6N5       0.154100
     28 O45          2.3260     5.9920    -7.3290 os         1 6N5      -0.307900
     29 C46          1.5110     5.1520    -8.1480 c3         1 6N5       0.243700
     30 C43          2.4170     4.1750    -5.7950 ca         1 6N5      -0.164000
     31 C42          2.8680     3.6430    -4.6030 ca         1 6N5      -0.049000
     32 N22          3.6790     2.1070    -0.0430 ns         1 6N5      -0.182900
     33 C3          -0.6910     0.0050     1.1970 ca         1 6N5      -0.099000
     34 C2           0.0010     0.0060     2.3940 ca         1 6N5      -0.093500
     35 C1           1.3830    -0.0000     2.3940 ca         1 6N5      -0.098000
     36 C9           5.6180     1.4430     1.2930 c3         1 6N5       0.176100
     37 O21          6.0990     2.7870     1.2190 oh         1 6N5      -0.556800
     38 C11          5.5500     1.6960     3.7780 c3         1 6N5       0.000900
     39 C12          7.5720     0.7270     2.6750 c3         1 6N5       0.226400
     40 O13          7.9650     0.0270     3.8570 oh         1 6N5      -0.589800
     41 H1          -0.5420    -0.0010    -0.9380 ha         1 6N5       0.104500
     42 H2           1.9240    -0.0040    -0.9380 ha         1 6N5       0.104000
     43 H3           3.9420    -0.5110     2.0800 hc         1 6N5       0.031200
     44 H4           3.9410    -0.5100     0.3110 hc         1 6N5       0.031200
     45 H5           3.6750     1.9720     2.0450 h1         1 6N5       0.083700
     46 H6           5.6180    -0.1690     2.7130 hc         1 6N5       0.042700
     47 H7           2.1520     3.7660    -1.6500 h1         1 6N5       0.070700
     48 H8           1.3930    13.6020    -4.6840 hc         1 6N5       0.013367
     49 H9           2.5160    12.2510    -4.4790 hc         1 6N5       0.013367
     50 H10          1.6480    12.8990    -3.0810 hc         1 6N5       0.013367
     51 H12         -2.5170    14.0270    -7.1350 ha         1 6N5       0.109000
     52 H13         -4.0580    12.2180    -6.2020 hc         1 6N5       0.028700
     53 H14         -3.2200    11.6070    -7.6150 hc         1 6N5       0.028700
     54 H15         -3.3470     9.8830    -5.6400 ha         1 6N5       0.104000
     55 H16         -0.7960     8.7140    -4.5550 ha         1 6N5       0.124000
     56 H17          0.5040     7.8830    -3.0010 hn         1 6N5       0.199500
     57 H18          3.1800     8.2600    -1.8180 h1         1 6N5       0.067700
     58 H19          2.5630     8.1070     0.4210 hc         1 6N5       0.016367
     59 H20          1.2280     9.0750    -0.2190 hc         1 6N5       0.016367
     60 H21          1.0130     7.3400     0.0480 hc         1 6N5       0.016367
     61 H22          3.6210     6.0010    -0.4190 hn         1 6N5       0.201500
     62 H23          5.0990     4.2670    -2.2000 hc         1 6N5       0.020200
     63 H24          4.2560     2.7540    -2.5590 hc         1 6N5       0.020200
     64 H25          4.6270     6.2890    -3.4540 ha         1 6N5       0.098000
     65 H26          3.8340     7.2400    -5.5850 ha         1 6N5       0.117000
     66 H27          0.6180     4.8720    -7.6020 h1         1 6N5      -0.003633
     67 H28          1.2310     5.6870    -9.0470 h1         1 6N5      -0.003633
     68 H29          2.0640     4.2600    -8.4150 h1         1 6N5      -0.003633
     69 H30          1.7980     3.5790    -6.4540 ha         1 6N5       0.117000
     70 H31          2.5970     2.6330    -4.3230 ha         1 6N5       0.098000
     71 H32          3.5420     1.5690    -0.8760 hn         1 6N5       0.176500
     72 H33         -1.7750     0.0070     1.1970 ha         1 6N5       0.104000
     73 H34         -0.5410     0.0080     3.3320 ha         1 6N5       0.104500
     74 H35          1.9250     0.0000     3.3330 ha         1 6N5       0.104000
     75 H36          6.0320     0.8660     0.4760 h1         1 6N5      -0.003300
     76 H37          6.8650     2.8170     0.6700 ho         1 6N5       0.381000
     77 H38          5.9600     1.3290     4.7110 hc         1 6N5       0.016033
     78 H39          5.8720     2.7190     3.6200 hc         1 6N5       0.016033
     79 H40          4.4690     1.6610     3.8200 hc         1 6N5       0.016033
     80 H41          7.9290     0.1920     1.8030 h1         1 6N5      -0.013300
     81 H42          7.9960     1.7230     2.6870 h1         1 6N5      -0.013300
     82 H43          8.8790    -0.2000     3.7990 ho         1 6N5       0.389000
     83 C23          3.5510     3.4470    -0.0780 c          1 6N5       0.566100
     84 C26          2.2620     6.3410    -1.9030 c          1 6N5       0.564100
     85 O49          3.7770     4.1050     0.9150 o          1 6N5      -0.626100
     86 C60          1.3900     9.7220    -2.9840 c          1 6N5       0.609700
     87 H11         -0.4390    14.0230    -5.9240 ha         1 6N5       0.103000
     88 C59          1.5830    12.6840    -4.1400 c3         1 6N5       0.078200
@<TRIPOS>BOND
     1     1     2 ar  
     2     1    33 ar  
     3     1    41 1   
     4     2     3 ar  
     5     2    42 1   
     6     3     4 1   
     7     3    35 ar  
     8     4     5 1   
     9     4    43 1   
    10     4    44 1   
    11     5    32 1   
    12     5    36 1   
    13     5    45 1   
    14     6    36 1   
    15     6    38 1   
    16     6    39 1   
    17     6    46 1   
    18     7    22 1   
    19     7    23 1   
    20     7    47 1   
    21     7    83 1   
    22     8     9 2   
    23     8    16 1   
    24     8    88 1   
    25     9    10 1   
    26     9    14 1   
    27    10    11 2   
    28    10    87 1   
    29    11    12 1   
    30    11    51 1   
    31    12    13 1   
    32    12    52 1   
    33    12    53 1   
    34    13    14 2   
    35    13    54 1   
    36    14    15 1   
    37    15    16 2   
    38    15    55 1   
    39    16    86 1   
    40    17    86 2   
    41    18    19 1   
    42    18    56 1   
    43    18    86 1   
    44    19    20 1   
    45    19    57 1   
    46    19    84 1   
    47    20    58 1   
    48    20    59 1   
    49    20    60 1   
    50    21    84 2   
    51    22    61 1   
    52    22    84 1   
    53    23    24 1   
    54    23    62 1   
    55    23    63 1   
    56    24    25 ar  
    57    24    31 ar  
    58    25    26 ar  
    59    25    64 1   
    60    26    27 ar  
    61    26    65 1   
    62    27    28 1   
    63    27    30 ar  
    64    28    29 1   
    65    29    66 1   
    66    29    67 1   
    67    29    68 1   
    68    30    31 ar  
    69    30    69 1   
    70    31    70 1   
    71    32    71 1   
    72    32    83 1   
    73    33    34 ar  
    74    33    72 1   
    75    34    35 ar  
    76    34    73 1   
    77    35    74 1   
    78    36    37 1   
    79    36    75 1   
    80    37    76 1   
    81    38    77 1   
    82    38    78 1   
    83    38    79 1   
    84    39    40 1   
    85    39    80 1   
    86    39    81 1   
    87    40    82 1   
    88    48    88 1   
    89    49    88 1   
    90    50    88 1   
    91    83    85 2   
@<TRIPOS>SUBSTRUCTURE
     1 6N5         1 TEMP              0 ****  ****    0 ROOT
