@<TRIPOS>MOLECULE
6N6
   16    17     1     0     0
SMALL
bcc


@<TRIPOS>ATOM
      1 C1           0.0000     0.0000     0.0000 cc         1 6N6      -0.132000
      2 C2           1.3800     0.0000     0.0000 cc         1 6N6      -0.081000
      3 C3           1.9420     0.0000     1.2280 cd         1 6N6      -0.032600
      4 S4           0.6780    -0.0010     2.4510 ss         1 6N6      -0.251800
      5 C5          -0.5670    -0.0010     1.2100 cd         1 6N6       0.017900
      6 C6           3.3880    -0.0010     1.5000 cd         1 6N6       0.522900
      7 N7           4.3390     0.0000     0.6060 nc         1 6N6      -0.274000
      8 N8           5.5310    -0.0000     1.0190 nc         1 6N6      -0.315000
      9 C9           5.7260    -0.0010     2.3070 cd         1 6N6       0.526300
     10 S10          4.1460     0.0060     3.0940 ss         1 6N6      -0.438800
     11 N11          6.9560    -0.0020     2.9450 nv         1 6N6      -0.507500
     12 H1          -0.5810     0.0000    -0.9140 ha         1 6N6       0.123000
     13 H2           1.9650     0.0010    -0.9120 ha         1 6N6       0.138000
     14 H5          -1.6340    -0.0010     1.3980 h4         1 6N6       0.150000
     15 HN11         7.1980    -0.7500     3.5640 hn         1 6N6       0.276800
     16 HN1A         7.5960     0.7540     2.8000 hn         1 6N6       0.276800
@<TRIPOS>BOND
     1     1     2 1   
     2     1     5 2   
     3     1    12 1   
     4     2     3 2   
     5     2    13 1   
     6     3     4 1   
     7     3     6 1   
     8     4     5 1   
     9     5    14 1   
    10     6     7 2   
    11     6    10 1   
    12     7     8 1   
    13     8     9 2   
    14     9    10 1   
    15     9    11 1   
    16    11    15 1   
    17    11    16 1   
@<TRIPOS>SUBSTRUCTURE
     1 6N6         1 TEMP              0 ****  ****    0 ROOT
