@<TRIPOS>MOLECULE
molecule
   16    17     1     0     0
SMALL
bcc


@<TRIPOS>ATOM
      1 C1           0.0000     0.0000     0.0000 cc         1 6N6      -0.162000
      2 C2           1.3800     0.0000     0.0000 cc         1 6N6      -0.105000
      3 C3           1.9420     0.0000     1.2280 cd         1 6N6      -0.082600
      4 S4           0.6780    -0.0010     2.4510 ss         1 6N6      -0.133800
      5 C5          -0.5670    -0.0010     1.2100 cd         1 6N6      -0.062100
      6 C6           3.3880    -0.0010     1.5000 cd         1 6N6       0.513900
      7 N7           4.3390     0.0000     0.6060 nc         1 6N6      -0.315000
      8 N8           5.5310    -0.0000     1.0190 nc         1 6N6      -0.355000
      9 C9           5.7260    -0.0010     2.3070 cd         1 6N6       0.683300
     10 S10          4.1460     0.0060     3.0940 ss         1 6N6      -0.372800
     11 N11          6.9560    -0.0020     2.9450 nv         1 6N6      -1.006500
     12 H1          -0.5810     0.0000    -0.9140 ha         1 6N6       0.153000
     13 H2           1.9650     0.0010    -0.9120 ha         1 6N6       0.170000
     14 H5          -1.6340    -0.0010     1.3980 h4         1 6N6       0.174000
     15 HN11         7.1980    -0.7500     3.5640 hn         1 6N6       0.449800
     16 HN1A         7.5960     0.7540     2.8000 hn         1 6N6       0.449800
@<TRIPOS>BOND
     1     1     2 1   
     2     1     5 2   
     3     2     3 2   
     4     3     4 1   
     5     3     6 1   
     6     4     5 1   
     7     6     7 2   
     8     6    10 1   
     9     7     8 1   
    10     8     9 2   
    11     9    10 1   
    12     9    11 1   
    13     1    12 1   
    14     2    13 1   
    15     5    14 1   
    16    11    15 1   
    17    11    16 1   
@<TRIPOS>SUBSTRUCTURE
     1 6N6         1 TEMP              0 ****  ****    0 ROOT
