@<TRIPOS>MOLECULE
molecule
   43    45     1     0     0
SMALL
bcc


@<TRIPOS>ATOM
      1 C1           0.0000     0.0000     0.0000 ca         1 6N8      -0.126500
      2 C21          4.1650    -3.7290     4.1670 ca         1 6N8      -0.126500
      3 C2           1.3820     0.0000     0.0000 ca         1 6N8      -0.123750
      4 C6          -0.6920     0.0000     1.1970 ca         1 6N8      -0.123750
      5 C20          3.1100    -3.4070     5.0000 ca         1 6N8      -0.123750
      6 C22          4.5640    -2.8430     3.1850 ca         1 6N8      -0.123750
      7 C3           2.0730     0.0000     1.1970 ca         1 6N8      -0.122250
      8 C5          -0.0010     0.0000     2.3940 ca         1 6N8      -0.122250
      9 C19          2.4530    -2.2000     4.8490 ca         1 6N8      -0.122250
     10 C23          3.9080    -1.6360     3.0330 ca         1 6N8      -0.122250
     11 C4           1.3820     0.0010     2.3940 ca         1 6N8      -0.079800
     12 C18          2.8510    -1.3150     3.8650 ca         1 6N8      -0.079800
     13 C11          2.9780     4.8540     3.6230 c          1 6N8       0.674900
     14 C15          4.7400     7.8820     3.6040 cc         1 6N8      -0.191000
     15 C16          5.7910     6.9410     3.6470 cc         1 6N8      -0.191000
     16 C14          3.5810     7.1960     3.5900 cd         1 6N8      -0.137800
     17 C17          5.2380     5.7140     3.6580 cd         1 6N8      -0.137800
     18 C8           3.1550     1.1410     3.7000 c3         1 6N8      -0.093400
     19 C9           2.4210     2.4830     3.6570 c3         1 6N8       0.123000
     20 C7           2.1350     0.0010     3.7000 c3         1 6N8       0.028900
     21 N13          3.8760     5.8590     3.6240 n          1 6N8      -0.042200
     22 N10          3.3970     3.5740     3.6580 ns         1 6N8      -0.588900
     23 O12          1.7890     5.1030     3.5920 o          1 6N8      -0.613100
     24 H1          -0.5410    -0.0000    -0.9380 ha         1 6N8       0.130000
     25 H2           1.9240    -0.0010    -0.9380 ha         1 6N8       0.130750
     26 H6          -1.7750    -0.0000     1.1960 ha         1 6N8       0.130750
     27 H21          4.6790    -4.6750     4.2860 ha         1 6N8       0.130000
     28 H20          2.7970    -4.1010     5.7710 ha         1 6N8       0.130750
     29 H22          5.3920    -3.0950     2.5320 ha         1 6N8       0.130750
     30 H3           3.1570     0.0000     1.1980 ha         1 6N8       0.130250
     31 H5          -0.5420     0.0010     3.3320 ha         1 6N8       0.130250
     32 H19          1.6260    -1.9480     5.5010 ha         1 6N8       0.130250
     33 H23          4.2200    -0.9420     2.2620 ha         1 6N8       0.130250
     34 H7           1.4390     0.1380     4.5180 hc         1 6N8       0.065700
     35 H10          4.3760     3.3700     3.6980 hn         1 6N8       0.316500
     36 H16          6.8510     7.1660     3.6670 ha         1 6N8       0.153000
     37 H14          2.5880     7.6270     3.5590 h4         1 6N8       0.175000
     38 H17          5.7760     4.7740     3.6880 h4         1 6N8       0.175000
     39 H81C         3.7560     1.0880     4.6000 hc         1 6N8       0.051700
     40 H82C         3.7960     1.0530     2.8310 hc         1 6N8       0.051700
     41 H91C         1.7800     2.5720     4.5260 h1         1 6N8       0.061700
     42 H92C         1.8200     2.5370     2.7580 h1         1 6N8       0.061700
     43 H15          4.8460     8.9600     3.5860 ha         1 6N8       0.153000
@<TRIPOS>BOND
     1     1     3 ar
     2     1     4 ar
     3     2     5 ar
     4     2     6 ar
     5     3     7 ar
     6     4     8 ar
     7     5     9 ar
     8     6    10 ar
     9     7    11 ar
    10     8    11 ar
    11     9    12 ar
    12    10    12 ar
    13    11    20 1
    14    12    20 1
    15    13    21 1
    16    13    22 1
    17    13    23 2
    18    14    15 1
    19    14    16 2
    20    15    17 2
    21    16    21 1
    22    17    21 1
    23    18    19 1
    24    18    20 1
    25    19    22 1
    26     1    24 1
    27     3    25 1
    28     4    26 1
    29     2    27 1
    30     5    28 1
    31     6    29 1
    32     7    30 1
    33     8    31 1
    34     9    32 1
    35    10    33 1
    36    20    34 1
    37    22    35 1
    38    14    43 1
    39    15    36 1
    40    16    37 1
    41    17    38 1
    42    18    39 1
    43    18    40 1
    44    19    41 1
    45    19    42 1
@<TRIPOS>SUBSTRUCTURE
     1 6N8         1 TEMP              0 ****  ****    0 ROOT
