@<TRIPOS>MOLECULE
6N9
   57    60     1     0     0
SMALL
bcc


@<TRIPOS>ATOM
      1 C10          0.0000     0.0000     0.0000 ca         1 6N9      -0.118000
      2 C13          1.3970     0.0030     2.4050 ca         1 6N9       0.087900
      3 C17         -1.0590    -1.2640     4.3520 cc         1 6N9      -0.210400
      4 C20         -1.8000    -2.8220     5.8740 ca         1 6N9       0.212800
      5 C22         -0.8310    -2.5210     3.8700 cd         1 6N9      -0.215100
      6 C24         -2.7240    -1.0990     7.7990 cp         1 6N9      -0.161300
      7 C28         -3.7970    -0.7650    10.0240 ca         1 6N9      -0.056000
      8 C01          4.1680    -3.4400    -2.8200 c3         1 6N9       0.004900
      9 C02          4.7620    -3.1970    -1.4330 c3         1 6N9       0.026600
     10 C03          5.2690    -1.7560    -1.3400 c3         1 6N9      -0.024600
     11 S04          4.3510    -0.8750    -0.0520 s6         1 6N9       0.309600
     12 N05          3.4840    -0.0010     1.1910 nu         1 6N9      -0.708400
     13 O06          5.4400     0.3720    -0.1710 oh         1 6N9      -0.451200
     14 O07          4.6260    -2.1180     1.0130 oh         1 6N9      -0.451200
     15 C08          2.0830     0.0000     1.2000 ca         1 6N9       0.117600
     16 C09          1.3830     0.0000     0.0000 ca         1 6N9      -0.108000
     17 C11         -0.6960     0.0030     1.1940 ca         1 6N9       0.116900
     18 C12         -0.0010     0.0030     2.4080 ca         1 6N9      -0.182600
     19 F14          2.0780     0.0030     3.5730 f          1 6N9      -0.122900
     20 F15         -2.0470     0.0040     1.1890 f          1 6N9      -0.122900
     21 C16         -0.7400     0.0050     3.6860 c          1 6N9       0.692900
     22 O18         -1.0840     1.0600     4.1890 o          1 6N9      -0.553100
     23 C19         -1.6970    -1.4350     5.6690 ca         1 6N9      -0.162100
     24 N21         -1.2620    -3.4400     4.7670 na         1 6N9       0.253900
     25 C23         -2.1640    -0.5560     6.6430 ca         1 6N9      -0.013000
     26 C25         -2.7930    -2.4880     7.9320 ca         1 6N9       0.415200
     27 N26         -2.3430    -3.2890     6.9920 nb         1 6N9      -0.574000
     28 C27         -3.2390    -0.2140     8.8730 cp         1 6N9      -0.067000
     29 C29         -4.2750     0.0600    11.0200 ca         1 6N9      -0.175000
     30 C30         -4.2000     1.4390    10.8770 ca         1 6N9       0.152100
     31 C31         -3.6440     1.9910     9.7300 ca         1 6N9      -0.175000
     32 C32         -3.1650     1.1710     8.7310 ca         1 6N9      -0.056000
     33 O33         -4.6720     2.2500    11.8600 os         1 6N9      -0.307900
     34 C34         -4.5640     3.6590    11.6450 c3         1 6N9       0.236700
     35 H101        -0.5420     0.0000    -0.9380 ha         1 6N9       0.119000
     36 H221         0.1240    -2.9120     3.5400 h4         1 6N9       0.143000
     37 H281        -3.9260    -1.8380    10.1040 ha         1 6N9       0.113000
     38 H011         3.3290    -2.7730    -2.9750 hc         1 6N9      -0.000300
     39 H012         3.8320    -4.4670    -2.8940 hc         1 6N9      -0.000300
     40 H013         4.9230    -3.2520    -3.5740 hc         1 6N9      -0.000300
     41 H021         5.5850    -3.8810    -1.2680 hc         1 6N9       0.017700
     42 H022         4.0000    -3.3610    -0.6800 hc         1 6N9       0.017700
     43 H031         6.3230    -1.7590    -1.0930 h1         1 6N9       0.048200
     44 H032         5.1220    -1.2590    -2.2910 h1         1 6N9       0.048200
     45 H051         3.9880     0.5320     1.8720 hn         1 6N9       0.286800
     46 H1           5.3390     0.7990    -1.0060 ho         1 6N9       0.437500
     47 H2           5.3080    -1.8710     1.6160 ho         1 6N9       0.437500
     48 H091         1.9250    -0.0020    -0.9380 ha         1 6N9       0.119000
     49 H3          -1.1930    -4.4280     4.6200 hn         1 6N9       0.126700
     50 H231        -2.1030     0.5190     6.5230 ha         1 6N9       0.137000
     51 H251        -3.2260    -2.9250     8.8240 h4         1 6N9      -0.012900
     52 H291        -4.7090    -0.3670    11.9160 ha         1 6N9       0.120000
     53 H311        -3.5870     3.0680     9.6200 ha         1 6N9       0.120000
     54 H321        -2.8030     1.6020     7.8060 ha         1 6N9       0.113000
     55 H341        -3.5700     3.9910    11.9200 h1         1 6N9      -0.000300
     56 H342        -5.2980     4.1740    12.2540 h1         1 6N9      -0.000300
     57 H4          -4.7420     3.8810    10.6000 h1         1 6N9      -0.000300
@<TRIPOS>BOND
     1     1    16 ar  
     2     1    17 ar  
     3     1    35 1   
     4     2    15 ar  
     5     2    18 ar  
     6     2    19 1   
     7     3     5 2   
     8     3    21 1   
     9     3    23 1   
    10     4    23 ar  
    11     4    24 1   
    12     4    27 ar  
    13     5    24 1   
    14     5    36 1   
    15     6    25 ar  
    16     6    26 ar  
    17     6    28 1   
    18     7    28 ar  
    19     7    29 ar  
    20     7    37 1   
    21     8     9 1   
    22     8    38 1   
    23     8    39 1   
    24     8    40 1   
    25     9    10 1   
    26     9    41 1   
    27     9    42 1   
    28    10    11 1   
    29    10    43 1   
    30    10    44 1   
    31    11    12 3   
    32    11    13 1   
    33    11    14 1   
    34    12    15 1   
    35    12    45 1   
    36    13    46 1   
    37    14    47 1   
    38    15    16 ar  
    39    16    48 1   
    40    17    18 ar  
    41    17    20 1   
    42    18    21 1   
    43    21    22 2   
    44    23    25 ar  
    45    24    49 1   
    46    25    50 1   
    47    26    27 ar  
    48    26    51 1   
    49    28    32 ar  
    50    29    30 ar  
    51    29    52 1   
    52    30    31 ar  
    53    30    33 1   
    54    31    32 ar  
    55    31    53 1   
    56    32    54 1   
    57    33    34 1   
    58    34    55 1   
    59    34    56 1   
    60    34    57 1   
@<TRIPOS>SUBSTRUCTURE
     1 6N9         1 TEMP              0 ****  ****    0 ROOT
