@<TRIPOS>MOLECULE
molecule
   57    60     1     0     0
SMALL
bcc


@<TRIPOS>ATOM
      1 C10          0.0000     0.0000     0.0000 ca         1 6N9      -0.149000
      2 C13          1.3970     0.0030     2.4050 ca         1 6N9       0.119900
      3 C17         -1.0590    -1.2640     4.3520 cc         1 6N9      -0.212400
      4 C20         -1.8000    -2.8220     5.8740 ca         1 6N9       0.450800
      5 C22         -0.8310    -2.5210     3.8700 cd         1 6N9      -0.041100
      6 C24         -2.7240    -1.0990     7.7990 cp         1 6N9      -0.176300
      7 C28         -3.7970    -0.7650    10.0240 ca         1 6N9      -0.082500
      8 C01          4.1680    -3.4400    -2.8200 c3         1 6N9      -0.090100
      9 C02          4.7620    -3.1970    -1.4330 c3         1 6N9      -0.031400
     10 C03          5.2690    -1.7560    -1.3400 c3         1 6N9      -0.242600
     11 S04          4.3510    -0.8750    -0.0520 s6         1 6N9       0.812600
     12 N05          3.4840    -0.0010     1.1910 nu         1 6N9      -1.040400
     13 O06          5.4400     0.3720    -0.1710 oh         1 6N9      -0.539200
     14 O07          4.6260    -2.1180     1.0130 oh         1 6N9      -0.539200
     15 C08          2.0830     0.0000     1.2000 ca         1 6N9       0.168600
     16 C09          1.3830     0.0000     0.0000 ca         1 6N9      -0.141000
     17 C11         -0.6960     0.0030     1.1940 ca         1 6N9       0.143900
     18 C12         -0.0010     0.0030     2.4080 ca         1 6N9      -0.195600
     19 F14          2.0780     0.0030     3.5730 f          1 6N9      -0.128900
     20 F15         -2.0470     0.0040     1.1890 f          1 6N9      -0.127900
     21 C16         -0.7400     0.0050     3.6860 c          1 6N9       0.627900
     22 O18         -1.0840     1.0600     4.1890 o          1 6N9      -0.510100
     23 C19         -1.6970    -1.4350     5.6690 ca         1 6N9      -0.178100
     24 N21         -1.2620    -3.4400     4.7670 na         1 6N9      -0.281100
     25 C23         -2.1640    -0.5560     6.6430 ca         1 6N9      -0.034000
     26 C25         -2.7930    -2.4880     7.9320 ca         1 6N9       0.456200
     27 N26         -2.3430    -3.2890     6.9920 nb         1 6N9      -0.710000
     28 C27         -3.2390    -0.2140     8.8730 cp         1 6N9      -0.068000
     29 C29         -4.2750     0.0600    11.0200 ca         1 6N9      -0.188500
     30 C30         -4.2000     1.4390    10.8770 ca         1 6N9       0.143100
     31 C31         -3.6440     1.9910     9.7300 ca         1 6N9      -0.188500
     32 C32         -3.1650     1.1710     8.7310 ca         1 6N9      -0.082500
     33 O33         -4.6720     2.2500    11.8600 os         1 6N9      -0.328900
     34 C34         -4.5640     3.6590    11.6450 c3         1 6N9       0.124700
     35 H101        -0.5420     0.0000    -0.9380 ha         1 6N9       0.150000
     36 H221         0.1240    -2.9120     3.5400 h4         1 6N9       0.178000
     37 H281        -3.9260    -1.8380    10.1040 ha         1 6N9       0.138000
     38 H011         3.3290    -2.7730    -2.9750 hc         1 6N9       0.029700
     39 H012         3.8320    -4.4670    -2.8940 hc         1 6N9       0.029700
     40 H013         4.9230    -3.2520    -3.5740 hc         1 6N9       0.029700
     41 H021         5.5850    -3.8810    -1.2680 hc         1 6N9       0.039700
     42 H022         4.0000    -3.3610    -0.6800 hc         1 6N9       0.039700
     43 H031         6.3230    -1.7590    -1.0930 h1         1 6N9       0.062200
     44 H032         5.1220    -1.2590    -2.2910 h1         1 6N9       0.062200
     45 H051         3.9880     0.5320     1.8720 hn         1 6N9       0.406800
     46 H1           5.3390     0.7990    -1.0060 ho         1 6N9       0.453500
     47 H2           5.3080    -1.8710     1.6160 ho         1 6N9       0.453500
     48 H091         1.9250    -0.0020    -0.9380 ha         1 6N9       0.133000
     49 H3          -1.1930    -4.4280     4.6200 hn         1 6N9       0.309700
     50 H231        -2.1030     0.5190     6.5230 ha         1 6N9       0.162000
     51 H251        -3.2260    -2.9250     8.8240 h4         1 6N9       0.028100
     52 H291        -4.7090    -0.3670    11.9160 ha         1 6N9       0.142000
     53 H311        -3.5870     3.0680     9.6200 ha         1 6N9       0.142000
     54 H321        -2.8030     1.6020     7.8060 ha         1 6N9       0.138000
     55 H341        -3.5700     3.9910    11.9200 h1         1 6N9       0.043033
     56 H342        -5.2980     4.1740    12.2540 h1         1 6N9       0.043033
     57 H4          -4.7420     3.8810    10.6000 h1         1 6N9       0.043033
@<TRIPOS>BOND
     1     1    16 ar  
     2     1    17 ar  
     3     2    15 ar  
     4     2    18 ar  
     5     2    19 1   
     6     3     5 2   
     7     3    21 1   
     8     3    23 1   
     9     4    23 ar  
    10     4    24 1   
    11     4    27 ar  
    12     5    24 1   
    13     6    25 ar  
    14     6    26 ar  
    15     6    28 1   
    16     7    28 ar  
    17     7    29 ar  
    18     8     9 1   
    19     9    10 1   
    20    10    11 1   
    21    11    12 3   
    22    11    13 1   
    23    11    14 1   
    24    12    15 1   
    25    15    16 ar  
    26    17    18 ar  
    27    17    20 1   
    28    18    21 1   
    29    21    22 2   
    30    23    25 ar  
    31    26    27 ar  
    32    28    32 ar  
    33    29    30 ar  
    34    30    31 ar  
    35    30    33 1   
    36    31    32 ar  
    37    33    34 1   
    38     1    35 1   
    39     5    36 1   
    40     7    37 1   
    41     8    38 1   
    42     8    39 1   
    43     8    40 1   
    44     9    41 1   
    45     9    42 1   
    46    10    43 1   
    47    10    44 1   
    48    12    45 1   
    49    13    46 1   
    50    14    47 1   
    51    16    48 1   
    52    24    49 1   
    53    25    50 1   
    54    26    51 1   
    55    29    52 1   
    56    31    53 1   
    57    32    54 1   
    58    34    55 1   
    59    34    56 1   
    60    34    57 1   
@<TRIPOS>SUBSTRUCTURE
     1 6N9         1 TEMP              0 ****  ****    0 ROOT
