@<TRIPOS>MOLECULE
6NA
   19    18     1     0     0
SMALL
bcc


@<TRIPOS>ATOM
      1 CA          0.0180    0.0010    0.0180 c3        1 6NA     -0.193400
      2 C           1.5560   -0.0010   -0.0190 c         1 6NA      0.907600
      3 O           2.2020   -0.0030    1.0680 o         1 6NA     -0.854800
      4 CB         -0.5230    0.0000    1.4260 c3        1 6NA     -0.062400
      5 CG         -2.0370    0.0010    1.4490 c3        1 6NA     -0.079400
      6 CD         -2.5720    0.0000    2.8660 c3        1 6NA     -0.081400
      7 C6         -4.0780   -0.0000    2.8970 c3        1 6NA     -0.088100
      8 OXT         2.1040    0.0000   -1.1600 o         1 6NA     -0.854800
      9 HAC1       -0.3440    0.9040   -0.5350 hc        1 6NA      0.018700
     10 HAC2       -0.3450   -0.9020   -0.5360 hc        1 6NA      0.018700
     11 HBC1       -0.1300    0.8980    1.9700 hc        1 6NA      0.043700
     12 HBC2       -0.1300   -0.8990    1.9690 hc        1 6NA      0.043700
     13 HGC1       -2.4220    0.9030    0.9050 hc        1 6NA      0.024700
     14 HGC2       -2.4230   -0.9010    0.9040 hc        1 6NA      0.024700
     15 HDC1       -2.1830   -0.9020    3.4090 hc        1 6NA      0.035700
     16 HDC2       -2.1840    0.9020    3.4090 hc        1 6NA      0.035700
     17 H6C1       -4.4500   -0.0010    3.9500 hc        1 6NA      0.020367
     18 H6C2       -4.4820    0.9040    2.3810 hc        1 6NA      0.020367
     19 H6C3       -4.4820   -0.9050    2.3810 hc        1 6NA      0.020367
@<TRIPOS>BOND
     1    1    2 1   
     2    1    4 1   
     3    1    9 1   
     4    1   10 1   
     5    2    3 1   
     6    2    8 1   
     7    4    5 1   
     8    4   11 1   
     9    4   12 1   
    10    5    6 1   
    11    5   13 1   
    12    5   14 1   
    13    6    7 1   
    14    6   15 1   
    15    6   16 1   
    16    7   17 1   
    17    7   18 1   
    18    7   19 1   
@<TRIPOS>SUBSTRUCTURE
     1 6NA         1 TEMP              0 ****  ****    0 ROOT
