@<TRIPOS>MOLECULE
molecule
   19    18     1     0     0
SMALL
bcc


@<TRIPOS>ATOM
      1 CA           0.0000     0.0000     0.0000 c3         1 6NA      -0.183400
      2 C            1.5070     0.0000     0.0000 c          1 6NA       0.891600
      3 O            2.1110     0.0000     1.0460 o          1 6NA      -0.858300
      4 CB          -0.5100     0.0000     1.4430 c3         1 6NA      -0.063400
      5 CG          -2.0400     0.0000     1.4440 c3         1 6NA      -0.088400
      6 CD          -2.5490     0.0000     2.8860 c3         1 6NA      -0.084400
      7 C6          -4.0800     0.0000     2.8870 c3         1 6NA      -0.093100
      8 OXT          2.1780    -0.0000    -1.1620 o          1 6NA      -0.858300
      9 HAC1        -0.3610     0.8850    -0.5110 hc         1 6NA       0.026700
     10 HAC2        -0.3610    -0.8850    -0.5110 hc         1 6NA       0.026700
     11 HBC1        -0.1490    -0.8850     1.9540 hc         1 6NA       0.044700
     12 HBC2        -0.1490     0.8850     1.9540 hc         1 6NA       0.044700
     13 HGC1        -2.4010    -0.8850     0.9330 hc         1 6NA       0.028700
     14 HGC2        -2.4010     0.8850     0.9330 hc         1 6NA       0.028700
     15 HDC1        -2.1880    -0.8840     3.3960 hc         1 6NA       0.036700
     16 HDC2        -2.1880     0.8840     3.3960 hc         1 6NA       0.036700
     17 H6C1        -4.4410     0.8850     2.3760 hc         1 6NA       0.022033
     18 H6C2        -4.4410    -0.8850     2.3760 hc         1 6NA       0.022033
     19 H6C3        -4.4410     0.0000     3.9080 hc         1 6NA       0.022033
@<TRIPOS>BOND
     1     1     2 1   
     2     1     4 1   
     3     1     9 1   
     4     1    10 1   
     5     2     3 1   
     6     2     8 1   
     7     4     5 1   
     8     4    11 1   
     9     4    12 1   
    10     5     6 1   
    11     5    13 1   
    12     5    14 1   
    13     6     7 1   
    14     6    15 1   
    15     6    16 1   
    16     7    17 1   
    17     7    18 1   
    18     7    19 1   
@<TRIPOS>SUBSTRUCTURE
     1 6NA         1 TEMP              0 ****  ****    0 ROOT
