@<TRIPOS>MOLECULE
molecule
   47    49     1     0     0
SMALL
bcc


@<TRIPOS>ATOM
      1 C10          0.0000     0.0000     0.0000 ca         1 6ND       0.301300
      2 C11          1.3880     0.0000     0.0000 ca         1 6ND       0.314300
      3 C13          1.3850     0.0010     2.2920 ca         1 6ND       0.258500
      4 C14         -0.0090    -0.0100     2.2890 ca         1 6ND       0.352900
      5 C16          2.1250     0.0000     3.5760 c          1 6ND       0.575600
      6 C22          8.0710    -0.4270     4.1370 cc         1 6ND       0.458700
      7 C24          6.4600     1.0800     4.4280 cc         1 6ND       0.391200
      8 C25          9.4710    -0.9260     3.8850 c3         1 6ND      -0.118400
      9 C26          2.1390    -0.0000    -1.3060 c3         1 6ND      -0.141400
     10 C01         -0.5580     0.1650    -6.7390 ca         1 6ND       0.151900
     11 C02         -0.2190    -1.1400    -6.4190 ca         1 6ND       0.076900
     12 C03         -0.6930    -1.7090    -5.2500 ca         1 6ND      -0.043000
     13 C04         -1.5030    -0.9750    -4.4030 ca         1 6ND      -0.314500
     14 C05         -1.8410     0.3270    -4.7230 ca         1 6ND      -0.022000
     15 C06         -1.3650     0.8990    -5.8880 ca         1 6ND      -0.169000
     16 S07         -2.1060    -1.7010    -2.9150 sy         1 6ND       1.425200
     17 N08         -0.9960    -1.3810    -1.7290 n7         1 6ND      -0.909100
     18 C09         -0.7510    -0.0010    -1.3060 c3         1 6ND       0.190500
     19 N12          2.0490     0.0000     1.1390 nb         1 6ND      -0.651000
     20 N15         -0.6640    -0.0050     1.1420 nb         1 6ND      -0.635000
     21 O17          1.5170     0.0010     4.6280 o          1 6ND      -0.602100
     22 N18          3.4730    -0.0000     3.5770 ns         1 6ND      -0.564900
     23 C19          4.2050     0.0000     4.8460 c3         1 6ND       0.199300
     24 C20          5.6860    -0.0010     4.5710 cd         1 6ND      -0.189700
     25 S21          6.7080    -1.4250     4.3980 ss         1 6ND      -0.196300
     26 N23          7.7290     0.8160     4.1920 nc         1 6ND      -0.688000
     27 O27         -3.2820    -0.9830    -2.5670 o          1 6ND      -0.622300
     28 O28         -2.0850    -3.1070    -3.1160 o          1 6ND      -0.622300
     29 F30         -0.0970     0.7230    -7.8800 f          1 6ND      -0.117900
     30 H1          -0.5540    -0.0130     3.2250 h4         1 6ND       0.064100
     31 H2           6.0740     2.0900     4.4930 h4         1 6ND       0.048100
     32 H3          10.1250    -0.0840     3.6940 hc         1 6ND       0.061033
     33 H4           9.4700    -1.5850     3.0250 hc         1 6ND       0.061033
     34 H5           9.8230    -1.4680     4.7540 hc         1 6ND       0.061033
     35 H6           3.2040     0.0220    -1.1100 hc         1 6ND       0.058700
     36 H7           1.8930    -0.8960    -1.8640 hc         1 6ND       0.058700
     37 H8           1.8600     0.8730    -1.8840 hc         1 6ND       0.058700
     38 H9          -0.4280    -2.7290    -4.9980 ha         1 6ND       0.173000
     39 H10         -2.4740     0.9010    -4.0570 ha         1 6ND       0.162000
     40 H11         -1.6300     1.9200    -6.1380 ha         1 6ND       0.160000
     41 H12         -0.4930    -2.1320    -1.2990 hn         1 6ND       0.461800
     42 H13         -1.6970     0.5110    -1.1790 h1         1 6ND       0.065700
     43 H14         -0.1640     0.5090    -2.0610 h1         1 6ND       0.065700
     44 H15          3.9740    -0.0010     2.7110 hn         1 6ND       0.338500
     45 H16          3.9430     0.8860     5.4130 h1         1 6ND       0.067700
     46 H17          3.9420    -0.8840     5.4150 h1         1 6ND       0.067700
     47 F29          0.5730    -1.8560    -7.2470 f          1 6ND      -0.121900
@<TRIPOS>BOND
     1    20     4 ar
     2    20     1 ar
     3     4     3 ar
     4    14    15 ar
     5    14    13 ar
     6    15    10 ar
     7    17    18 1
     8    17    16 1
     9    21     5 2
    10    27    16 2
    11    18     1 1
    12     1     2 ar
    13    16    13 1
    14    16    28 2
    15    13    12 ar
    16     3     5 1
    17     3    19 ar
    18    10    29 1
    19    10    11 ar
    20     5    22 1
    21     2    19 ar
    22     2     9 1
    23    12    11 ar
    24    11    47 1
    25    22    23 1
    26    23    24 1
    27     7    24 2
    28     7    26 1
    29    24    25 1
    30    26     6 2
    31     6    25 1
    32     6     8 1
    33     4    30 1
    34     7    31 1
    35     8    32 1
    36     8    33 1
    37     8    34 1
    38     9    35 1
    39     9    36 1
    40     9    37 1
    41    12    38 1
    42    14    39 1
    43    15    40 1
    44    17    41 1
    45    18    42 1
    46    18    43 1
    47    22    44 1
    48    23    45 1
    49    23    46 1
@<TRIPOS>SUBSTRUCTURE
     1 6ND         1 TEMP              0 ****  ****    0 ROOT
