@<TRIPOS>MOLECULE
6ND
   47    49     1     0     0
SMALL
bcc


@<TRIPOS>ATOM
      1 C10          0.0000     0.0000     0.0000 ca         1 6ND       0.251300
      2 C11          1.3880     0.0000     0.0000 ca         1 6ND       0.267300
      3 C13          1.3850     0.0010     2.2920 ca         1 6ND       0.208500
      4 C14         -0.0090    -0.0100     2.2890 ca         1 6ND       0.344900
      5 C16          2.1250     0.0000     3.5760 c          1 6ND       0.486600
      6 C22          8.0710    -0.4270     4.1370 cc         1 6ND       0.449700
      7 C24          6.4600     1.0800     4.4280 cd         1 6ND       0.381200
      8 C25          9.4710    -0.9260     3.8850 c3         1 6ND      -0.005400
      9 C26          2.1390    -0.0000    -1.3060 c3         1 6ND      -0.039400
     10 C01         -0.5580     0.1650    -6.7390 ca         1 6ND       0.131900
     11 C02         -0.2190    -1.1400    -6.4190 ca         1 6ND       0.050900
     12 C03         -0.6930    -1.7090    -5.2500 ca         1 6ND      -0.003000
     13 C04         -1.5030    -0.9750    -4.4030 ca         1 6ND      -0.158500
     14 C05         -1.8410     0.3270    -4.7230 ca         1 6ND       0.016000
     15 C06         -1.3650     0.8990    -5.8880 ca         1 6ND      -0.143000
     16 S07         -2.1060    -1.7010    -2.9150 sy         1 6ND       1.047200
     17 N08         -0.9960    -1.3810    -1.7290 n7         1 6ND      -0.577100
     18 C09         -0.7510    -0.0010    -1.3060 c3         1 6ND       0.178500
     19 N12          2.0490     0.0000     1.1390 nb         1 6ND      -0.538000
     20 N15         -0.6640    -0.0050     1.1420 nb         1 6ND      -0.525000
     21 O17          1.5170     0.0010     4.6280 o          1 6ND      -0.646100
     22 N18          3.4730    -0.0000     3.5770 ns         1 6ND      -0.176900
     23 C19          4.2050     0.0000     4.8460 c3         1 6ND       0.160300
     24 C20          5.6860    -0.0010     4.5710 cc         1 6ND      -0.153700
     25 S21          6.7080    -1.4250     4.3980 ss         1 6ND      -0.292300
     26 N23          7.7290     0.8160     4.1920 nd         1 6ND      -0.572000
     27 O27         -3.2820    -0.9830    -2.5670 o          1 6ND      -0.575800
     28 O28         -2.0850    -3.1070    -3.1160 o          1 6ND      -0.575800
     29 F30         -0.0970     0.7230    -7.8800 f          1 6ND      -0.110900
     30 H1          -0.5540    -0.0130     3.2250 h4         1 6ND       0.019100
     31 H2           6.0740     2.0900     4.4930 h4         1 6ND       0.005100
     32 H3          10.1250    -0.0840     3.6940 hc         1 6ND       0.021033
     33 H4           9.4700    -1.5850     3.0250 hc         1 6ND       0.021033
     34 H5           9.8230    -1.4680     4.7540 hc         1 6ND       0.021033
     35 H6           3.2040     0.0220    -1.1100 hc         1 6ND       0.019367
     36 H7           1.8930    -0.8960    -1.8640 hc         1 6ND       0.019367
     37 H8           1.8600     0.8730    -1.8840 hc         1 6ND       0.019367
     38 H9          -0.4280    -2.7290    -4.9980 ha         1 6ND       0.142000
     39 H10         -2.4740     0.9010    -4.0570 ha         1 6ND       0.131000
     40 H11         -1.6300     1.9200    -6.1380 ha         1 6ND       0.131000
     41 H12         -0.4930    -2.1320    -1.2990 hn         1 6ND       0.353800
     42 H13         -1.6970     0.5110    -1.1790 h1         1 6ND       0.028700
     43 H14         -0.1640     0.5090    -2.0610 h1         1 6ND       0.028700
     44 H15          3.9740    -0.0010     2.7110 hn         1 6ND       0.196500
     45 H16          3.9430     0.8860     5.4130 h1         1 6ND       0.035700
     46 H17          3.9420    -0.8840     5.4150 h1         1 6ND       0.035700
     47 F29          0.5730    -1.8560    -7.2470 f          1 6ND      -0.110900
@<TRIPOS>BOND
     1     1     2 ar  
     2     1    18 1   
     3     1    20 ar  
     4     2     9 1   
     5     2    19 ar  
     6     3     4 ar  
     7     3     5 1   
     8     3    19 ar  
     9     4    20 ar  
    10     4    30 1   
    11     5    21 2   
    12     5    22 1   
    13     6     8 1   
    14     6    25 1   
    15     6    26 2   
    16     7    24 2   
    17     7    26 1   
    18     7    31 1   
    19     8    32 1   
    20     8    33 1   
    21     8    34 1   
    22     9    35 1   
    23     9    36 1   
    24     9    37 1   
    25    10    11 ar  
    26    10    15 ar  
    27    10    29 1   
    28    11    12 ar  
    29    11    47 1   
    30    12    13 ar  
    31    12    38 1   
    32    13    14 ar  
    33    13    16 1   
    34    14    15 ar  
    35    14    39 1   
    36    15    40 1   
    37    16    17 1   
    38    16    27 2   
    39    16    28 2   
    40    17    18 1   
    41    17    41 1   
    42    18    42 1   
    43    18    43 1   
    44    22    23 1   
    45    22    44 1   
    46    23    24 1   
    47    23    45 1   
    48    23    46 1   
    49    24    25 1   
@<TRIPOS>SUBSTRUCTURE
     1 6ND         1 TEMP              0 ****  ****    0 ROOT
