@<TRIPOS>MOLECULE
molecule
   46    49     1     0     0
SMALL
bcc


@<TRIPOS>ATOM
      1 C6           0.0000     0.0000     0.0000 ca         1 6NE       0.000000
      2 C8           2.0750     0.0000     1.2220 ca         1 6NE      -0.029000
      3 N5          -2.1000     0.0070    -1.4520 na         1 6NE      -0.273900
      4 C9           1.3440    -0.0010     2.4370 ca         1 6NE      -0.038000
      5 C5'         -5.1590    -1.2990    -4.7940 c3         1 6NE       0.145100
      6 C4'         -5.3230    -0.1600    -5.8040 c3         1 6NE       0.104100
      7 O4'         -6.6200    -0.2350    -6.4000 oh         1 6NE      -0.603800
      8 O5'         -3.8840    -1.1890    -4.1580 os         1 6NE      -0.383600
      9 C1'         -3.6980     0.0250    -3.4280 c3         1 6NE       0.137800
     10 C2'         -3.8040     1.2160    -4.3840 c3         1 6NE       0.112100
     11 O2'         -3.6730     2.4340    -3.6470 oh         1 6NE      -0.602800
     12 C3'         -5.1660     1.1810    -5.0820 c3         1 6NE       0.105100
     13 O3'         -5.2450     2.2460    -6.0310 oh         1 6NE      -0.605800
     14 C1          -2.3370     0.0200    -2.7810 cc         1 6NE       0.423800
     15 N2          -1.1960     0.0270    -3.4160 nd         1 6NE      -0.683000
     16 C3          -0.1920     0.0180    -2.5320 cd         1 6NE       0.334200
     17 C4          -0.7330     0.0060    -1.2830 cc         1 6NE      -0.181600
     18 C7           1.3850     0.0000     0.0000 ca         1 6NE      -0.103000
     19 C12          3.4810     0.0000     1.2620 ca         1 6NE      -0.116000
     20 C13          4.1190     0.0000     2.4650 ca         1 6NE      -0.123000
     21 C14          3.4010    -0.0000     3.6580 ca         1 6NE      -0.125000
     22 C15          2.0390    -0.0000     3.6560 ca         1 6NE      -0.115000
     23 C10         -0.0630    -0.0010     2.4030 ca         1 6NE      -0.106000
     24 C11         -0.7140    -0.0010     1.2120 ca         1 6NE      -0.129000
     25 H1          -2.7810    -0.1460    -0.7340 hn         1 6NE       0.302700
     26 H2          -5.3270    -4.5290    -5.0010 ho         1 6NE       0.404000
     27 H6          -4.5620    -0.2480    -6.5700 h1         1 6NE       0.061700
     28 H7          -6.5510    -0.0680    -7.3260 ho         1 6NE       0.414000
     29 H8          -4.4640     0.1070    -2.6670 h1         1 6NE       0.049700
     30 H9          -3.0180     1.1510    -5.1270 h1         1 6NE       0.080700
     31 H10         -3.1910     3.0610    -4.1600 ho         1 6NE       0.419000
     32 H11         -5.9520     1.2870    -4.3440 h1         1 6NE       0.056700
     33 H12         -5.9610     2.8160    -5.8060 ho         1 6NE       0.414000
     34 H14          0.8660     0.0210    -2.7680 h4         1 6NE       0.043100
     35 H15          1.9260     0.1370    -0.9280 ha         1 6NE       0.140000
     36 H16          4.0520     0.0010     0.3420 ha         1 6NE       0.134000
     37 H17          5.2020     0.0010     2.4940 ha         1 6NE       0.129000
     38 H18          3.9330     0.0000     4.6010 ha         1 6NE       0.129000
     39 H19          1.4940    -0.0010     4.5930 ha         1 6NE       0.132000
     40 H20         -0.6270    -0.0010     3.3280 ha         1 6NE       0.134000
     41 H21         -1.7970    -0.0000     1.1940 ha         1 6NE       0.121000
     42 H5          -5.9400    -1.2300    -4.0460 h1         1 6NE       0.060700
     43 C6'         -5.2550    -2.6430    -5.5170 c3         1 6NE       0.152400
     44 H3          -4.4220    -2.7440    -6.2020 h1         1 6NE       0.038200
     45 O6'         -5.2170    -3.7030    -4.5600 oh         1 6NE      -0.601800
     46 H4          -6.1850    -2.6890    -6.0710 h1         1 6NE       0.038200
@<TRIPOS>BOND
     1    13    12 1   
     2     7     6 1   
     3    12     6 1   
     4    12    10 1   
     5     6     5 1   
     6    11    10 1   
     7    10     9 1   
     8    45    43 1   
     9     5    43 1   
    10     5     8 1   
    11     9     8 1   
    12     9    14 1   
    13    15    14 2   
    14    15    16 1   
    15    14     3 1   
    16    16    17 2   
    17     3    17 1   
    18    17     1 1   
    19     1    18 ar  
    20     1    24 ar  
    21    18     2 ar  
    22    24    23 ar  
    23     2    19 ar  
    24     2     4 ar  
    25    19    20 ar  
    26    23     4 ar  
    27     4    22 ar  
    28    20    21 ar  
    29    22    21 ar  
    30     3    25 1   
    31    45    26 1   
    32    43    44 1   
    33    43    46 1   
    34     5    42 1   
    35     6    27 1   
    36     7    28 1   
    37     9    29 1   
    38    10    30 1   
    39    11    31 1   
    40    12    32 1   
    41    13    33 1   
    42    16    34 1   
    43    18    35 1   
    44    19    36 1   
    45    20    37 1   
    46    21    38 1   
    47    22    39 1   
    48    23    40 1   
    49    24    41 1   
@<TRIPOS>SUBSTRUCTURE
     1 6NE         1 TEMP              0 ****  ****    0 ROOT
