@<TRIPOS>MOLECULE
molecule
   39    41     1     0     0
SMALL
bcc


@<TRIPOS>ATOM
      1 C1           0.0000     0.0000     0.0000 ca         1 6NF      -0.244300
      2 C2           1.3790     0.0000     0.0000 ca         1 6NF       0.425700
      3 N3           2.0560     0.0000     1.1320 nb         1 6NF      -0.690000
      4 C4           1.4560     0.0010     2.3070 ca         1 6NF       0.425700
      5 C5           0.0800     0.0020     2.4000 ca         1 6NF      -0.244300
      6 C6          -0.6790     0.0010     1.2240 ca         1 6NF       0.018000
      7 C7          -2.1570     0.0020     1.2740 cc         1 6NF      -0.016300
      8 C8          -2.9290     0.0030     2.4010 cd         1 6NF      -0.359300
      9 C9          -4.2710     0.0040     2.0030 cd         1 6NF       0.615200
     10 N10         -4.3130     0.0030     0.6900 nc         1 6NF      -0.570800
     11 N11         -3.0000     0.0070     0.2030 na         1 6NF      -0.039600
     12 N12         -5.3780     0.0050     2.8580 nu         1 6NF      -0.923900
     13 C13         -5.1830     0.0030     4.3090 c3         1 6NF       0.252800
     14 C14         -6.5450     0.0050     5.0080 c3         1 6NF      -0.085700
     15 C15         -6.3440    -0.1220     6.5190 c3         1 6NF      -0.074400
     16 C16         -7.7050    -0.1210     7.2170 c3         1 6NF      -0.079400
     17 C17         -8.4360     1.1860     6.9070 c3         1 6NF      -0.080400
     18 C18         -8.6380     1.3130     5.3950 c3         1 6NF      -0.079400
     19 C19         -7.2760     1.3120     4.6980 c3         1 6NF      -0.074400
     20 H1          -0.5500    -0.0000    -0.9330 ha         1 6NF       0.139000
     21 H2           1.9130    -0.0010    -0.9420 h4         1 6NF       0.025600
     22 H4           2.0530     0.0010     3.2120 h4         1 6NF       0.025600
     23 H5          -0.4060     0.0030     3.3680 ha         1 6NF       0.139000
     24 H8          -2.5670     0.0030     3.4220 ha         1 6NF       0.154000
     25 H11         -2.7290     0.0080    -0.7610 hn         1 6NF       0.330700
     26 H12         -6.3030    -0.0320     2.4780 hn         1 6NF       0.447800
     27 H131        -4.6300    -0.8820     4.5980 h1         1 6NF       0.037700
     28 H132        -4.6280     0.8860     4.6000 h1         1 6NF       0.037700
     29 H14         -7.1380    -0.8300     4.6540 hc         1 6NF       0.057700
     30 H151        -5.7570     0.7160     6.8750 hc         1 6NF       0.044450
     31 H152        -5.8280    -1.0490     6.7360 hc         1 6NF       0.044450
     32 H191        -7.4200     1.3990     3.6280 hc         1 6NF       0.044450
     33 H192        -6.6880     2.1480     5.0570 hc         1 6NF       0.044450
     34 H161        -7.5610    -0.2080     8.2870 hc         1 6NF       0.042200
     35 H162        -8.2940    -0.9570     6.8580 hc         1 6NF       0.042200
     36 H171        -9.4010     1.1850     7.4000 hc         1 6NF       0.041700
     37 H172        -7.8450     2.0220     7.2620 hc         1 6NF       0.041700
     38 H181        -9.1540     2.2400     5.1780 hc         1 6NF       0.042200
     39 H182        -9.2250     0.4750     5.0390 hc         1 6NF       0.042200
@<TRIPOS>BOND
     1     1     2 ar
     2     1     6 ar
     3     2     3 ar
     4     3     4 ar
     5     4     5 ar
     6     5     6 ar
     7     6     7 1
     8     7     8 2
     9     7    11 1
    10     8     9 1
    11     9    10 2
    12     9    12 1
    13    10    11 1
    14    12    13 1
    15    13    14 1
    16    14    15 1
    17    14    19 1
    18    15    16 1
    19    16    17 1
    20    17    18 1
    21    18    19 1
    22     1    20 1
    23     2    21 1
    24     4    22 1
    25     5    23 1
    26     8    24 1
    27    11    25 1
    28    12    26 1
    29    13    27 1
    30    13    28 1
    31    14    29 1
    32    15    30 1
    33    15    31 1
    34    19    32 1
    35    19    33 1
    36    16    34 1
    37    16    35 1
    38    17    36 1
    39    17    37 1
    40    18    38 1
    41    18    39 1
@<TRIPOS>SUBSTRUCTURE
     1 6NF         1 TEMP              0 ****  ****    0 ROOT
