@<TRIPOS>MOLECULE
6NF
   39    41     1     0     0
SMALL
bcc


@<TRIPOS>ATOM
      1 C1           0.0000     0.0000     0.0000 ca         1 6NF      -0.220800
      2 C2           1.3790     0.0000     0.0000 ca         1 6NF       0.412700
      3 N3           2.0560     0.0000     1.1320 nb         1 6NF      -0.585000
      4 C4           1.4560     0.0010     2.3070 ca         1 6NF       0.412700
      5 C5           0.0800     0.0020     2.4000 ca         1 6NF      -0.220800
      6 C6          -0.6790     0.0010     1.2240 ca         1 6NF       0.031000
      7 C7          -2.1570     0.0020     1.2740 cc         1 6NF      -0.181300
      8 C8          -2.9290     0.0030     2.4010 cd         1 6NF      -0.361300
      9 C9          -4.2710     0.0040     2.0030 cd         1 6NF       0.510200
     10 N10         -4.3130     0.0030     0.6900 nc         1 6NF      -0.728800
     11 N11         -3.0000     0.0070     0.2030 na         1 6NF       0.457400
     12 N12         -5.3780     0.0050     2.8580 nu         1 6NF      -0.518900
     13 C13         -5.1830     0.0030     4.3090 c3         1 6NF       0.173800
     14 C14         -6.5450     0.0050     5.0080 c3         1 6NF      -0.061700
     15 C15         -6.3440    -0.1220     6.5190 c3         1 6NF      -0.023400
     16 C16         -7.7050    -0.1210     7.2170 c3         1 6NF      -0.022900
     17 C17         -8.4360     1.1860     6.9070 c3         1 6NF      -0.025400
     18 C18         -8.6380     1.3130     5.3950 c3         1 6NF      -0.022900
     19 C19         -7.2760     1.3120     4.6980 c3         1 6NF      -0.023400
     20 H1          -0.5500    -0.0000    -0.9330 ha         1 6NF       0.116000
     21 H2           1.9130    -0.0010    -0.9420 h4         1 6NF      -0.019400
     22 H4           2.0530     0.0010     3.2120 h4         1 6NF      -0.019400
     23 H5          -0.4060     0.0030     3.3680 ha         1 6NF       0.116000
     24 H8          -2.5670     0.0030     3.4220 ha         1 6NF       0.141000
     25 H11         -2.7290     0.0080    -0.7610 hn         1 6NF       0.146700
     26 H12         -6.3030    -0.0320     2.4780 hn         1 6NF       0.300800
     27 H131        -4.6300    -0.8820     4.5980 h1         1 6NF       0.013200
     28 H132        -4.6280     0.8860     4.6000 h1         1 6NF       0.013200
     29 H14         -7.1380    -0.8300     4.6540 hc         1 6NF       0.034700
     30 H151        -5.7570     0.7160     6.8750 hc         1 6NF       0.017950
     31 H152        -5.8280    -1.0490     6.7360 hc         1 6NF       0.017950
     32 H191        -7.4200     1.3990     3.6280 hc         1 6NF       0.017950
     33 H192        -6.6880     2.1480     5.0570 hc         1 6NF       0.017950
     34 H161        -7.5610    -0.2080     8.2870 hc         1 6NF       0.014200
     35 H162        -8.2940    -0.9570     6.8580 hc         1 6NF       0.014200
     36 H171        -9.4010     1.1850     7.4000 hc         1 6NF       0.013700
     37 H172        -7.8450     2.0220     7.2620 hc         1 6NF       0.013700
     38 H181        -9.1540     2.2400     5.1780 hc         1 6NF       0.014200
     39 H182        -9.2250     0.4750     5.0390 hc         1 6NF       0.014200
@<TRIPOS>BOND
     1     1     2 ar  
     2     1     6 ar  
     3     1    20 1   
     4     2     3 ar  
     5     2    21 1   
     6     3     4 ar  
     7     4     5 ar  
     8     4    22 1   
     9     5     6 ar  
    10     5    23 1   
    11     6     7 1   
    12     7     8 2   
    13     7    11 1   
    14     8     9 1   
    15     8    24 1   
    16     9    10 2   
    17     9    12 1   
    18    10    11 1   
    19    11    25 1   
    20    12    13 1   
    21    12    26 1   
    22    13    14 1   
    23    13    27 1   
    24    13    28 1   
    25    14    15 1   
    26    14    19 1   
    27    14    29 1   
    28    15    16 1   
    29    15    30 1   
    30    15    31 1   
    31    16    17 1   
    32    16    34 1   
    33    16    35 1   
    34    17    18 1   
    35    17    36 1   
    36    17    37 1   
    37    18    19 1   
    38    18    38 1   
    39    18    39 1   
    40    19    32 1   
    41    19    33 1   
@<TRIPOS>SUBSTRUCTURE
     1 6NF         1 TEMP              0 ****  ****    0 ROOT
