@<TRIPOS>MOLECULE
6NG
   68    68     1     0     0
SMALL
bcc


@<TRIPOS>ATOM
      1 C1           0.0000     0.0000     0.0000 ca         1 6NG      -0.076000
      2 C2           1.3820     0.0000     0.0000 ca         1 6NG      -0.115000
      3 C3           2.0740     0.0000     1.1970 ca         1 6NG      -0.108000
      4 C9          -4.0240    -1.5210     1.2040 c          1 6NG       0.654100
      5 C12         -5.9980    -2.9490     1.2100 c3         1 6NG       0.010800
      6 C20         -8.2540    -5.1120    -4.4430 c3         1 6NG       0.003900
      7 C21         -9.6100    -7.0220    -3.5740 c3         1 6NG       0.003900
      8 C22        -10.0960    -3.0520    -2.0450 c          1 6NG       0.576100
      9 C27        -11.4110    -1.5170    -5.7200 c3         1 6NG      -0.018100
     10 N16         -8.2520    -3.3920    -0.4990 n7         1 6NG      -0.563300
     11 C17         -8.7460    -3.6920    -1.8500 c3         1 6NG       0.132500
     12 C25        -11.9760    -2.4160    -3.4590 c3         1 6NG       0.041000
     13 C26        -12.3460    -2.4460    -4.9430 c3         1 6NG      -0.057700
     14 C28        -13.7920    -1.9770    -5.1180 c3         1 6NG      -0.061000
     15 C29        -14.1610    -2.0070    -6.6030 c3         1 6NG      -0.002100
     16 C30        -14.7260    -2.9060    -4.3400 c3         1 6NG      -0.002100
     17 C31        -13.9330    -0.5500    -4.5860 c3         1 6NG      -0.002100
     18 C18         -8.8700    -5.2080    -2.0240 c3         1 6NG      -0.068400
     19 P13         -6.5830    -3.1810    -0.5010 p5         1 6NG       0.472500
     20 C6          -0.6910     0.0080     1.1980 ca         1 6NG      -0.097300
     21 C5           0.0010     0.0080     2.3950 ca         1 6NG      -0.076000
     22 C4           1.3840     0.0010     2.3950 ca         1 6NG      -0.115000
     23 O14         -6.2380    -1.9870    -1.3050 o          1 6NG      -0.630000
     24 O15         -5.8770    -4.4790    -1.1380 o          1 6NG      -0.630000
     25 N11         -4.5450    -2.7640     1.2090 ns         1 6NG      -0.068900
     26 O8          -2.6880    -1.3520     1.2030 os         1 6NG      -0.435900
     27 O10         -4.7600    -0.5540     1.2010 o          1 6NG      -0.664000
     28 H1          -0.5420     0.0000    -0.9380 ha         1 6NG       0.110000
     29 H2           1.9240    -0.0040    -0.9380 ha         1 6NG       0.096000
     30 H3           3.1570    -0.0030     1.1960 ha         1 6NG       0.092000
     31 H4          -2.5570     0.5250     0.3120 h1         1 6NG       0.012700
     32 H5          -2.5570     0.5300     2.0810 h1         1 6NG       0.012700
     33 H6          -6.2500    -3.8230     1.8000 h1         1 6NG       0.029700
     34 H7          -6.4730    -2.0750     1.6390 h1         1 6NG       0.029700
     35 H8         -10.2520    -4.9800    -3.6630 hc         1 6NG       0.026700
     36 H9          -8.5920    -5.3200    -5.4510 hc         1 6NG       0.000867
     37 H10         -8.0260    -4.0570    -4.3490 hc         1 6NG       0.000867
     38 H11         -7.3640    -5.6940    -4.2350 hc         1 6NG       0.000867
     39 H12        -10.4170    -7.3010    -2.9070 hc         1 6NG       0.000867
     40 H13         -8.7430    -7.6390    -3.3710 hc         1 6NG       0.000867
     41 H14         -9.9240    -7.1660    -4.6000 hc         1 6NG       0.000867
     42 H17        -11.9310    -1.1200    -6.5840 hc         1 6NG       0.011367
     43 H18         -8.7050    -3.7910     0.2990 hn         1 6NG       0.277800
     44 H19         -8.0520    -3.3000    -2.5840 h1         1 6NG       0.075700
     45 H21        -12.6910    -3.0030    -2.8960 h1         1 6NG       0.027200
     46 H22        -11.9900    -1.3930    -3.1040 h1         1 6NG       0.027200
     47 H23        -12.2460    -3.4560    -5.3200 hc         1 6NG       0.029700
     48 H24        -15.2390    -2.0440    -6.7060 hc         1 6NG       0.006811
     49 H25        -13.7820    -1.1150    -7.0870 hc         1 6NG       0.006811
     50 H26        -13.7240    -2.8830    -7.0660 hc         1 6NG       0.006811
     51 H27        -14.6610    -2.6820    -3.2830 hc         1 6NG       0.006811
     52 H28        -15.7450    -2.7590    -4.6780 hc         1 6NG       0.006811
     53 H29        -14.4350    -3.9360    -4.5100 hc         1 6NG       0.006811
     54 H30        -13.7840    -0.5480    -3.5130 hc         1 6NG       0.006811
     55 H31        -13.1920     0.0860    -5.0550 hc         1 6NG       0.006811
     56 H32        -14.9240    -0.1760    -4.8130 hc         1 6NG       0.006811
     57 H33         -7.9050    -5.6710    -1.8520 hc         1 6NG       0.041700
     58 H34         -9.5880    -5.5960    -1.3120 hc         1 6NG       0.041700
     59 H35         -0.5410     0.0120     3.3330 ha         1 6NG       0.110000
     60 H36          1.9260     0.0010     3.3330 ha         1 6NG       0.096000
     61 H38         -3.9400    -3.5600     1.2500 hn         1 6NG       0.155500
     62 C7          -2.1980     0.0150     1.1980 c3         1 6NG       0.296700
     63 N24        -10.6350    -2.9770    -3.2780 ns         1 6NG      -0.249900
     64 C19         -9.3390    -5.5210    -3.4460 c3         1 6NG      -0.084700
     65 H15        -10.5400    -2.0720    -6.0470 hc         1 6NG       0.011367
     66 H20        -10.1000    -3.2590    -4.0750 hn         1 6NG       0.194500
     67 O23        -10.6990    -2.6050    -1.0920 o          1 6NG      -0.654100
     68 H16        -11.0990    -0.7000    -5.0800 hc         1 6NG       0.011367
@<TRIPOS>BOND
     1     1     2 ar  
     2     1    20 ar  
     3     1    28 1   
     4     2     3 ar  
     5     2    29 1   
     6     3    22 ar  
     7     3    30 1   
     8     4    25 1   
     9     4    26 1   
    10     4    27 2   
    11     5    19 1   
    12     5    25 1   
    13     5    33 1   
    14     5    34 1   
    15     6    36 1   
    16     6    37 1   
    17     6    38 1   
    18     6    64 1   
    19     7    39 1   
    20     7    40 1   
    21     7    41 1   
    22     7    64 1   
    23     8    11 1   
    24     8    63 1   
    25     8    67 2   
    26     9    13 1   
    27     9    42 1   
    28     9    65 1   
    29     9    68 1   
    30    10    11 1   
    31    10    19 1   
    32    10    43 1   
    33    11    18 1   
    34    11    44 1   
    35    12    13 1   
    36    12    45 1   
    37    12    46 1   
    38    12    63 1   
    39    13    14 1   
    40    13    47 1   
    41    14    15 1   
    42    14    16 1   
    43    14    17 1   
    44    15    48 1   
    45    15    49 1   
    46    15    50 1   
    47    16    51 1   
    48    16    52 1   
    49    16    53 1   
    50    17    54 1   
    51    17    55 1   
    52    17    56 1   
    53    18    57 1   
    54    18    58 1   
    55    18    64 1   
    56    19    23 1   
    57    19    24 1   
    58    20    21 ar  
    59    20    62 1   
    60    21    22 ar  
    61    21    59 1   
    62    22    60 1   
    63    25    61 1   
    64    26    62 1   
    65    31    62 1   
    66    32    62 1   
    67    35    64 1   
    68    63    66 1   
@<TRIPOS>SUBSTRUCTURE
     1 6NG         1 TEMP              0 ****  ****    0 ROOT
