@<TRIPOS>MOLECULE
molecule
   68    68     1     0     0
SMALL
bcc


@<TRIPOS>ATOM
      1 C1           0.0000     0.0000     0.0000 ca         1 6NG      -0.103000
      2 C2           1.3820     0.0000     0.0000 ca         1 6NG      -0.139500
      3 C3           2.0740     0.0000     1.1970 ca         1 6NG      -0.131000
      4 C9          -4.0240    -1.5210     1.2040 c          1 6NG       0.746100
      5 C12         -5.9980    -2.9490     1.2100 c3         1 6NG      -0.063200
      6 C20         -8.2540    -5.1120    -4.4430 c3         1 6NG      -0.088100
      7 C21         -9.6100    -7.0220    -3.5740 c3         1 6NG      -0.088100
      8 C22        -10.0960    -3.0520    -2.0450 c          1 6NG       0.657100
      9 C27        -11.4110    -1.5170    -5.7200 c3         1 6NG      -0.095100
     10 N16         -8.2520    -3.3920    -0.4990 n7         1 6NG      -0.904300
     11 C17         -8.7460    -3.6920    -1.8500 c3         1 6NG       0.174500
     12 C25        -11.9760    -2.4160    -3.4590 c3         1 6NG       0.113000
     13 C26        -12.3460    -2.4460    -4.9430 c3         1 6NG      -0.081700
     14 C28        -13.7920    -1.9770    -5.1180 c3         1 6NG      -0.063000
     15 C29        -14.1610    -2.0070    -6.6030 c3         1 6NG      -0.084433
     16 C30        -14.7260    -2.9060    -4.3400 c3         1 6NG      -0.084433
     17 C31        -13.9330    -0.5500    -4.5860 c3         1 6NG      -0.084433
     18 C18         -8.8700    -5.2080    -2.0240 c3         1 6NG      -0.107400
     19 P13         -6.5830    -3.1810    -0.5010 p5         1 6NG       1.111500
     20 C6          -0.6910     0.0080     1.1980 ca         1 6NG      -0.083300
     21 C5           0.0010     0.0080     2.3950 ca         1 6NG      -0.103000
     22 C4           1.3840     0.0010     2.3950 ca         1 6NG      -0.139500
     23 O14         -6.2380    -1.9870    -1.3050 o          1 6NG      -0.806500
     24 O15         -5.8770    -4.4790    -1.1380 o          1 6NG      -0.806500
     25 N11         -4.5450    -2.7640     1.2090 ns         1 6NG      -0.520900
     26 O8          -2.6880    -1.3520     1.2030 os         1 6NG      -0.447900
     27 O10         -4.7600    -0.5540     1.2010 o          1 6NG      -0.609000
     28 H1          -0.5420     0.0000    -0.9380 ha         1 6NG       0.138000
     29 H2           1.9240    -0.0040    -0.9380 ha         1 6NG       0.123000
     30 H3           3.1570    -0.0030     1.1960 ha         1 6NG       0.119000
     31 H4          -2.5570     0.5250     0.3120 h1         1 6NG       0.054200
     32 H5          -2.5570     0.5300     2.0810 h1         1 6NG       0.054200
     33 H6          -6.2500    -3.8230     1.8000 h1         1 6NG       0.053700
     34 H7          -6.4730    -2.0750     1.6390 h1         1 6NG       0.053700
     35 H8         -10.2520    -4.9800    -3.6630 hc         1 6NG       0.047700
     36 H9          -8.5920    -5.3200    -5.4510 hc         1 6NG       0.031533
     37 H10         -8.0260    -4.0570    -4.3490 hc         1 6NG       0.031533
     38 H11         -7.3640    -5.6940    -4.2350 hc         1 6NG       0.031533
     39 H12        -10.4170    -7.3010    -2.9070 hc         1 6NG       0.031533
     40 H13         -8.7430    -7.6390    -3.3710 hc         1 6NG       0.031533
     41 H14         -9.9240    -7.1660    -4.6000 hc         1 6NG       0.031533
     42 H17        -11.9310    -1.1200    -6.5840 hc         1 6NG       0.038033
     43 H18         -8.7050    -3.7910     0.2990 hn         1 6NG       0.389800
     44 H19         -8.0520    -3.3000    -2.5840 h1         1 6NG       0.103700
     45 H21        -12.6910    -3.0030    -2.8960 h1         1 6NG       0.048200
     46 H22        -11.9900    -1.3930    -3.1040 h1         1 6NG       0.048200
     47 H23        -12.2460    -3.4560    -5.3200 hc         1 6NG       0.050700
     48 H24        -15.2390    -2.0440    -6.7060 hc         1 6NG       0.034367
     49 H25        -13.7820    -1.1150    -7.0870 hc         1 6NG       0.034367
     50 H26        -13.7240    -2.8830    -7.0660 hc         1 6NG       0.034367
     51 H27        -14.6610    -2.6820    -3.2830 hc         1 6NG       0.034367
     52 H28        -15.7450    -2.7590    -4.6780 hc         1 6NG       0.034367
     53 H29        -14.4350    -3.9360    -4.5100 hc         1 6NG       0.034367
     54 H30        -13.7840    -0.5480    -3.5130 hc         1 6NG       0.034367
     55 H31        -13.1920     0.0860    -5.0550 hc         1 6NG       0.034367
     56 H32        -14.9240    -0.1760    -4.8130 hc         1 6NG       0.034367
     57 H33         -7.9050    -5.6710    -1.8520 hc         1 6NG       0.067200
     58 H34         -9.5880    -5.5960    -1.3120 hc         1 6NG       0.067200
     59 H35         -0.5410     0.0120     3.3330 ha         1 6NG       0.138000
     60 H36          1.9260     0.0010     3.3330 ha         1 6NG       0.123000
     61 H38         -3.9400    -3.5600     1.2500 hn         1 6NG       0.320500
     62 C7          -2.1980     0.0150     1.1980 c3         1 6NG       0.215700
     63 N24        -10.6350    -2.9770    -3.2780 ns         1 6NG      -0.603900
     64 C19         -9.3390    -5.5210    -3.4460 c3         1 6NG      -0.094700
     65 H15        -10.5400    -2.0720    -6.0470 hc         1 6NG       0.038033
     66 H20        -10.1000    -3.2590    -4.0750 hn         1 6NG       0.318500
     67 O23        -10.6990    -2.6050    -1.0920 o          1 6NG      -0.614100
     68 H16        -11.0990    -0.7000    -5.0800 hc         1 6NG       0.038033
@<TRIPOS>BOND
     1    22    21 ar
     2    22     3 ar
     3    21    20 ar
     4     3     2 ar
     5    20    62 1
     6    20     1 ar
     7     2     1 ar
     8    62    26 1
     9    26     4 1
    10     4    27 2
    11     4    25 1
    12    25     5 1
    13     5    19 1
    14    23    19 1
    15    24    19 1
    16    19    10 1
    17    16    14 1
    18    12    63 1
    19    12    13 1
    20    10    11 1
    21    63     8 1
    22    14    13 1
    23    14    17 1
    24    14    15 1
    25    67     8 2
    26     8    11 1
    27    13     9 1
    28    11    18 1
    29    18    64 1
    30     7    64 1
    31    64     6 1
    32     1    28 1
    33     2    29 1
    34     3    30 1
    35    62    31 1
    36    62    32 1
    37     5    33 1
    38     5    34 1
    39    64    35 1
    40     6    36 1
    41     6    37 1
    42     6    38 1
    43     7    39 1
    44     7    40 1
    45     7    41 1
    46     9    65 1
    47     9    68 1
    48     9    42 1
    49    10    43 1
    50    11    44 1
    51    63    66 1
    52    12    45 1
    53    12    46 1
    54    13    47 1
    55    15    48 1
    56    15    49 1
    57    15    50 1
    58    16    51 1
    59    16    52 1
    60    16    53 1
    61    17    54 1
    62    17    55 1
    63    17    56 1
    64    18    57 1
    65    18    58 1
    66    21    59 1
    67    22    60 1
    68    25    61 1
@<TRIPOS>SUBSTRUCTURE
     1 6NG         1 TEMP              0 ****  ****    0 ROOT
