@<TRIPOS>MOLECULE
6NH
   39    42     1     0     0
SMALL
bcc


@<TRIPOS>ATOM
      1 C1           0.0000     0.0000     0.0000 ca         1 6NH      -0.256900
      2 C2           1.3990     0.0000     0.0000 ca         1 6NH      -0.124000
      3 C3           2.0920     0.0000     1.1770 ca         1 6NH      -0.023000
      4 C4           1.4110     0.0010     2.3880 ca         1 6NH      -0.263200
      5 C5           0.0030     0.0020     2.4070 ca         1 6NH       0.069400
      6 C6          -0.7000     0.0070     1.2010 ca         1 6NH       0.035000
      7 C7          -0.7370    -0.0000    -1.2830 ce         1 6NH       0.223800
      8 N1          -0.0470    -0.0010    -2.4750 nz         1 6NH       0.190400
      9 N2          -2.0410     0.0010    -1.2860 n2         1 6NH      -0.513100
     10 N3           1.8130     0.0010     3.7080 na         1 6NH       0.317700
     11 N4          -0.3800     0.0030     3.7070 nc         1 6NH      -0.492100
     12 C8           0.6810     0.0020     4.4780 cd         1 6NH       0.239800
     13 C5'          0.6570     0.0010     5.9550 cd         1 6NH       0.294000
     14 C4'         -0.4980     0.0080     6.7640 cd         1 6NH      -0.030200
     15 O4'         -1.7850     0.0110     6.3240 oh         1 6NH      -0.447100
     16 C3'         -0.0920     0.0030     8.0690 cc         1 6NH      -0.209300
     17 N2'          1.2760     0.0020     8.0740 na         1 6NH       0.500400
     18 N1'          1.7140     0.0010     6.7450 nc         1 6NH      -0.665800
     19 C1B         -0.9710     0.0040     9.2580 ca         1 6NH      -0.042000
     20 C2B         -0.7010     0.8580    10.3290 ca         1 6NH      -0.080000
     21 C3B         -1.5250     0.8540    11.4350 ca         1 6NH      -0.096000
     22 C4B         -2.6170     0.0060    11.4840 ca         1 6NH      -0.079000
     23 C5B         -2.8900    -0.8430    10.4260 ca         1 6NH      -0.096000
     24 C6B         -2.0780    -0.8450     9.3120 ca         1 6NH      -0.080000
     25 H2           1.9370    -0.0050    -0.9400 ha         1 6NH       0.083000
     26 H3           3.1760    -0.0000     1.1660 ha         1 6NH       0.117000
     27 H6          -1.7830     0.0070     1.2010 ha         1 6NH       0.115000
     28 HN11        -0.6960     0.0000    -3.2370 hn         1 6NH       0.220133
     29 HN12         0.5280    -0.8180    -2.5280 hn         1 6NH       0.220133
     30 HN2         -2.5440     0.0020    -0.4200 hn         1 6NH       0.383400
     31 HN3          2.7570    -0.0000     4.0400 hn         1 6NH       0.152700
     32 H4'         -2.0590     0.8980     6.1590 ho         1 6NH       0.402000
     33 H2'          1.8610     0.0000     8.8860 hn         1 6NH       0.159700
     34 H2B          0.1540     1.5220    10.2910 ha         1 6NH       0.110500
     35 H3B         -1.3170     1.5160    12.2670 ha         1 6NH       0.110500
     36 H4B         -3.2600     0.0050    12.3560 ha         1 6NH       0.109000
     37 H5B         -3.7480    -1.5030    10.4700 ha         1 6NH       0.110500
     38 H6B         -2.2930    -1.5100     8.4850 ha         1 6NH       0.110500
     39 H13          0.5500     0.8020    -2.5160 hn         1 6NH       0.220133
@<TRIPOS>BOND
     1     1     2 ar  
     2     1     6 ar  
     3     1     7 1   
     4     2     3 ar  
     5     2    25 1   
     6     3     4 ar  
     7     3    26 1   
     8     4     5 ar  
     9     4    10 1   
    10     5     6 ar  
    11     5    11 1   
    12     6    27 1   
    13     7     8 1   
    14     7     9 2   
    15     8    28 1   
    16     8    29 1   
    17     8    39 1   
    18     9    30 1   
    19    10    12 1   
    20    10    31 1   
    21    11    12 2   
    22    12    13 1   
    23    13    14 1   
    24    13    18 2   
    25    14    15 1   
    26    14    16 2   
    27    15    32 1   
    28    16    17 1   
    29    16    19 1   
    30    17    18 1   
    31    17    33 1   
    32    19    20 ar  
    33    19    24 ar  
    34    20    21 ar  
    35    20    34 1   
    36    21    22 ar  
    37    21    35 1   
    38    22    23 ar  
    39    22    36 1   
    40    23    24 ar  
    41    23    37 1   
    42    24    38 1   
@<TRIPOS>SUBSTRUCTURE
     1 6NH         1 TEMP              0 ****  ****    0 ROOT
