@<TRIPOS>MOLECULE
molecule
   39    42     1     0     0
SMALL
bcc


@<TRIPOS>ATOM
      1 C1           0.0000     0.0000     0.0000 ca         1 6NH      -0.224900
      2 C2           1.3990     0.0000     0.0000 ca         1 6NH      -0.142000
      3 C3           2.0920     0.0000     1.1770 ca         1 6NH      -0.085000
      4 C4           1.4110     0.0010     2.3880 ca         1 6NH      -0.067200
      5 C5           0.0030     0.0020     2.4070 ca         1 6NH       0.092400
      6 C6          -0.7000     0.0070     1.2010 ca         1 6NH       0.038000
      7 C7          -0.7370    -0.0000    -1.2830 ce         1 6NH       0.551800
      8 N1          -0.0470    -0.0010    -2.4750 nz         1 6NH      -0.800600
      9 N2          -2.0410     0.0010    -1.2860 n2         1 6NH      -0.693100
     10 N3           1.8130     0.0010     3.7080 na         1 6NH      -0.234300
     11 N4          -0.3800     0.0030     3.7070 nc         1 6NH      -0.563100
     12 C8           0.6810     0.0020     4.4780 cd         1 6NH       0.445800
     13 C5'          0.6570     0.0010     5.9550 cd         1 6NH       0.289000
     14 C4'         -0.4980     0.0080     6.7640 cd         1 6NH      -0.053200
     15 O4'         -1.7850     0.0110     6.3240 oh         1 6NH      -0.470100
     16 C3'         -0.0920     0.0030     8.0690 cc         1 6NH      -0.021300
     17 N2'          1.2760     0.0020     8.0740 na         1 6NH      -0.013600
     18 N1'          1.7140     0.0010     6.7450 nc         1 6NH      -0.499800
     19 C1B         -0.9710     0.0040     9.2580 ca         1 6NH      -0.057000
     20 C2B         -0.7010     0.8580    10.3290 ca         1 6NH      -0.099000
     21 C3B         -1.5250     0.8540    11.4350 ca         1 6NH      -0.127500
     22 C4B         -2.6170     0.0060    11.4840 ca         1 6NH      -0.104000
     23 C5B         -2.8900    -0.8430    10.4260 ca         1 6NH      -0.127500
     24 C6B         -2.0780    -0.8450     9.3120 ca         1 6NH      -0.099000
     25 H2           1.9370    -0.0050    -0.9400 ha         1 6NH       0.104000
     26 H3           3.1760    -0.0000     1.1660 ha         1 6NH       0.151000
     27 H6          -1.7830     0.0070     1.2010 ha         1 6NH       0.181000
     28 HN11         0.5290     0.8160    -2.5280 hn         1 6NH       0.463133
     29 HN12         0.5280    -0.8180    -2.5280 hn         1 6NH       0.463133
     30 HN2         -2.5400     0.0010    -2.1530 hn         1 6NH       0.428400
     31 HN3          2.7570    -0.0000     4.0400 hn         1 6NH       0.332700
     32 H4'         -2.0590     0.8980     6.1590 ho         1 6NH       0.421000
     33 H2'          1.8610     0.0000     8.8860 hn         1 6NH       0.352700
     34 H2B          0.1540     1.5220    10.2910 ha         1 6NH       0.140500
     35 H3B         -1.3170     1.5160    12.2670 ha         1 6NH       0.141000
     36 H4B         -3.2600     0.0050    12.3560 ha         1 6NH       0.140000
     37 H5B         -3.7480    -1.5030    10.4700 ha         1 6NH       0.141000
     38 H6B         -2.2930    -1.5100     8.4850 ha         1 6NH       0.140500
     39 H13         -0.6960     0.0280    -3.2370 hn         1 6NH       0.463133
@<TRIPOS>BOND
     1     1     2 ar
     2     1     6 ar
     3     1     7 1
     4     2     3 ar
     5     2    25 1
     6     3     4 ar
     7     3    26 1
     8     4     5 ar
     9     4    10 1
    10     5     6 ar
    11     5    11 1
    12     6    27 1
    13     7     8 1
    14     7     9 2
    15     8    28 1
    16     8    29 1
    17     9    30 1
    18    10    12 1
    19    10    31 1
    20    11    12 2
    21    12    13 1
    22    13    14 1
    23    13    18 2
    24    14    15 1
    25    14    16 2
    26    15    32 1
    27    16    17 1
    28    16    19 1
    29    17    18 1
    30    17    33 1
    31    19    20 ar
    32    19    24 ar
    33    20    21 ar
    34    20    34 1
    35    21    22 ar
    36    21    35 1
    37    22    23 ar
    38    22    36 1
    39    23    24 ar
    40    23    37 1
    41    24    38 1
    42    39     8 1
@<TRIPOS>SUBSTRUCTURE
     1 6NH         1 TEMP              0 ****  ****    0 ROOT
