@<TRIPOS>MOLECULE
molecule
   17    18     1     0     0
SMALL
bcc


@<TRIPOS>ATOM
      1 C6           0.0000     0.0000     0.0000 ca         1 6NI      -0.109200
      2 C7           1.3660     0.0000     0.0000 ca         1 6NI      -0.092000
      3 C8           2.0590     0.0000     1.2090 ca         1 6NI      -0.031200
      4 C9           1.3380    -0.0120     2.4180 ca         1 6NI      -0.224900
      5 C4          -0.0610    -0.0180     2.3910 ca         1 6NI      -0.055000
      6 C5          -0.7120    -0.0120     1.1920 ca         1 6NI      -0.129000
      7 N1           3.3890     0.0030     1.5410 na         1 6NI      -0.043100
      8 N2           3.5110    -0.0060     2.9340 nc         1 6NI      -0.477100
      9 C3           2.3320    -0.0150     3.4880 cd         1 6NI       0.377800
     10 N10         -0.7300     0.0050    -1.2880 no         1 6NI       0.292200
     11 O11         -1.9480     0.0000    -1.2980 o          1 6NI      -0.202000
     12 O12         -0.1120     0.0210    -2.3380 o          1 6NI      -0.202000
     13 H71          1.9100     0.0090    -0.9370 ha         1 6NI       0.167000
     14 H41         -0.6240    -0.0280     3.3170 ha         1 6NI       0.149000
     15 H51         -1.7950    -0.0120     1.1700 ha         1 6NI       0.168000
     16 HN11         4.1500     0.0110     0.8910 hn         1 6NI       0.340700
     17 H31          2.1260    -0.0230     4.5520 h4         1 6NI       0.071800
@<TRIPOS>BOND
     1     1     2 ar  
     2     1     6 ar  
     3     1    10 1   
     4     2     3 ar  
     5     2    13 1   
     6     3     4 ar  
     7     3     7 1   
     8     4     5 ar  
     9     4     9 1   
    10     5     6 ar  
    11     5    14 1   
    12     6    15 1   
    13     7     8 1   
    14     7    16 1   
    15     8     9 2   
    16     9    17 1   
    17    10    11 1   
    18    10    12 1   
@<TRIPOS>SUBSTRUCTURE
     1 6NI         1 TEMP              0 ****  ****    0 ROOT
