@<TRIPOS>MOLECULE
molecule
   31    33     1     0     0
SMALL
bcc


@<TRIPOS>ATOM
      1 C1           0.0000     0.0000     0.0000 ca         1 6NJ      -0.130000
      2 C2           1.3820     0.0000     0.0000 ca         1 6NJ      -0.126000
      3 C3           2.0730     0.0000     1.1970 ca         1 6NJ      -0.124000
      4 C4           1.3810     0.0010     2.3950 ca         1 6NJ      -0.086300
      5 C5          -0.0010     0.0030     2.3940 ca         1 6NJ      -0.124000
      6 C6          -0.6920     0.0010     1.1960 ca         1 6NJ      -0.126000
      7 C7           2.1350     0.0010     3.7000 c3         1 6NJ      -0.033100
      8 C8           2.3910     1.4440     4.1410 c3         1 6NJ      -0.073700
      9 C9           3.1450     1.4440     5.4460 cc         1 6NJ       0.372900
     10 C10          4.5960     1.4420     5.6020 ca         1 6NJ      -0.247900
     11 C11          5.6690     1.4400     4.7060 ca         1 6NJ      -0.054000
     12 C12          6.9480     1.4400     5.1830 ca         1 6NJ      -0.172000
     13 C13          7.1920     1.4400     6.5510 ca         1 6NJ      -0.084000
     14 C14          6.1600     1.4420     7.4460 ca         1 6NJ      -0.159000
     15 C15          4.8450     1.4430     6.9870 ca         1 6NJ      -0.017200
     16 N16          3.6230     1.4440     7.6090 na         1 6NJ      -0.054100
     17 N17          2.6170     1.4500     6.6370 nd         1 6NJ      -0.502100
     18 H1          -0.5410    -0.0010    -0.9380 ha         1 6NJ       0.128000
     19 H2           1.9240    -0.0010    -0.9380 ha         1 6NJ       0.129500
     20 H3           3.1560    -0.0010     1.1980 ha         1 6NJ       0.130500
     21 H5          -0.5430     0.0040     3.3320 ha         1 6NJ       0.130500
     22 H6          -1.7750     0.0020     1.1960 ha         1 6NJ       0.129500
     23 H7           1.5500    -0.5090     4.4550 hc         1 6NJ       0.056700
     24 H7A          3.0820    -0.5100     3.5700 hc         1 6NJ       0.056700
     25 H8           1.4440     1.9550     4.2700 hc         1 6NJ       0.062700
     26 H8A          2.9760     1.9540     3.3860 hc         1 6NJ       0.062700
     27 H11          5.4870     1.4400     3.6380 ha         1 6NJ       0.131000
     28 H12          7.7810     1.4390     4.4900 ha         1 6NJ       0.132000
     29 H13          8.2140     1.4400     6.9130 ha         1 6NJ       0.132000
     30 H14          6.3630     1.4420     8.5100 ha         1 6NJ       0.130000
     31 HN16         3.4750     1.4470     8.5980 hn         1 6NJ       0.331700
@<TRIPOS>BOND
     1     1     2 ar
     2     1     6 ar
     3     2     3 ar
     4     3     4 ar
     5     4     5 ar
     6     4     7 1
     7     5     6 ar
     8     7     8 1
     9     8     9 1
    10     9    10 1
    11     9    17 2
    12    10    11 ar
    13    10    15 ar
    14    11    12 ar
    15    12    13 ar
    16    13    14 ar
    17    14    15 ar
    18    15    16 1
    19    16    17 1
    20     1    18 1
    21     2    19 1
    22     3    20 1
    23     5    21 1
    24     6    22 1
    25     7    23 1
    26     7    24 1
    27     8    25 1
    28     8    26 1
    29    11    27 1
    30    12    28 1
    31    13    29 1
    32    14    30 1
    33    16    31 1
@<TRIPOS>SUBSTRUCTURE
     1 6NJ         1 TEMP              0 ****  ****    0 ROOT
