@<TRIPOS>MOLECULE
6NJ
   31    33     1     0     0
SMALL
bcc


@<TRIPOS>ATOM
      1 C1         -0.0290    0.0120   -0.0700 ca        1 6NJ     -0.132000
      2 C2          1.3100   -0.3440    0.0870 ca        1 6NJ     -0.129000
      3 C3          1.8860   -0.3590    1.3560 ca        1 6NJ     -0.127000
      4 C4          1.1260   -0.0180    2.4810 ca        1 6NJ     -0.081300
      5 C5         -0.2180    0.3380    2.3180 ca        1 6NJ     -0.127000
      6 C6         -0.7920    0.3520    1.0470 ca        1 6NJ     -0.129000
      7 C7          1.7420   -0.0450    3.8370 c3        1 6NJ     -0.035100
      8 C8          2.6280    1.1690    4.0600 c3        1 6NJ     -0.081700
      9 C9          3.3530    1.1150    5.3500 cc        1 6NJ      0.353900
     10 C10         4.7720    1.4370    5.5210 ca        1 6NJ     -0.210900
     11 C11         5.8190    1.8270    4.6900 ca        1 6NJ     -0.063000
     12 C12         7.0680    2.0410    5.2580 ca        1 6NJ     -0.161000
     13 C13         7.2870    1.8650    6.6360 ca        1 6NJ     -0.099000
     14 C14         6.2720    1.4680    7.4950 ca        1 6NJ     -0.141000
     15 C15         5.0060    1.2550    6.9340 ca        1 6NJ     -0.055200
     16 N16         3.7880    0.7990    7.4750 na        1 6NJ     -0.015100
     17 N17         2.8170    0.7830    6.5480 nd        1 6NJ     -0.517100
     18 H1         -0.4830    0.0230   -1.0710 ha        1 6NJ      0.130000
     19 H2          1.9140   -0.6150   -0.7920 ha        1 6NJ      0.130000
     20 H3          2.9420   -0.6430    1.4790 ha        1 6NJ      0.132000
     21 H5         -0.8240    0.6050    3.1960 ha        1 6NJ      0.132000
     22 H6         -1.8490    0.6320    0.9270 ha        1 6NJ      0.130000
     23 H7          0.9410   -0.0740    4.6230 hc        1 6NJ      0.059700
     24 H7A         2.3540   -0.9790    3.9500 hc        1 6NJ      0.059700
     25 H8          3.3830    1.2400    3.2310 hc        1 6NJ      0.058200
     26 H8A         2.0030    2.1020    4.0290 hc        1 6NJ      0.058200
     27 H11         5.6540    1.9600    3.6110 ha        1 6NJ      0.138000
     28 H12         7.9090    2.3540    4.6210 ha        1 6NJ      0.134000
     29 H13         8.2940    2.0480    7.0420 ha        1 6NJ      0.133000
     30 H14         6.4530    1.3260    8.5680 ha        1 6NJ      0.139000
     31 HN16        3.5320    0.8640    8.4340 hn        1 6NJ      0.314700
@<TRIPOS>BOND
     1    1    2 ar  
     2    1    6 ar  
     3    1   18 1   
     4    2    3 ar  
     5    2   19 1   
     6    3    4 ar  
     7    3   20 1   
     8    4    5 ar  
     9    4    7 1   
    10    5    6 ar  
    11    5   21 1   
    12    6   22 1   
    13    7    8 1   
    14    7   23 1   
    15    7   24 1   
    16    8    9 1   
    17    8   25 1   
    18    8   26 1   
    19    9   10 1   
    20    9   17 2   
    21   10   11 ar  
    22   10   15 ar  
    23   11   12 ar  
    24   11   27 1   
    25   12   13 ar  
    26   12   28 1   
    27   13   14 ar  
    28   13   29 1   
    29   14   15 ar  
    30   14   30 1   
    31   15   16 1   
    32   16   17 1   
    33   16   31 1   
@<TRIPOS>SUBSTRUCTURE
     1 6NJ         1 TEMP              0 ****  ****    0 ROOT
