@<TRIPOS>MOLECULE
6NK
   41    44     1     0     0
SMALL
bcc


@<TRIPOS>ATOM
      1 C1           0.0000     0.0000     0.0000 ca         1 6NK      -0.258000
      2 C2           1.4020     0.0000     0.0000 ca         1 6NK      -0.089000
      3 C3           2.0920     0.0000     1.1740 ca         1 6NK      -0.046000
      4 C4           1.4030    -0.0000     2.3930 ca         1 6NK       0.041000
      5 N5          -0.3830    -0.0010     3.7340 na         1 6NK       0.275000
      6 C12         -0.0040    -0.0000     2.4000 ca         1 6NK      -0.284000
      7 C13         -0.7000     0.0060     1.2070 ca         1 6NK       0.084000
      8 O           -1.9510    -0.0010    -1.2800 o          1 6NK      -0.239000
      9 C           -0.7360    -0.0020    -1.2790 c3         1 6NK       0.202000
     10 N1          -0.0600    -0.0020    -2.4450 nz         1 6NK       0.536000
     11 C5           0.7610    -0.0100     4.4780 c2         1 6NK      -0.092000
     12 N2           1.8070    -0.0060     3.6880 n2         1 6NK      -0.167000
     13 N3           0.8080    -0.0160     5.8530 nu         1 6NK       0.100000
     14 C6          -0.4340    -0.0190     6.6300 c3         1 6NK      -0.112000
     15 C7          -0.1020    -0.0260     8.1240 c3         1 6NK      -0.076000
     16 H1           1.9790     0.1730    -0.9000 ha         1 6NK       0.092000
     17 H2           3.1540    -0.1990     1.2590 ha         1 6NK       0.137000
     18 H3          -1.3210    -0.0010     4.0850 hn         1 6NK       0.097000
     19 H4          -1.7370    -0.2820     1.3400 ha         1 6NK       0.122000
     20 H5          -1.0410     0.1960    -2.4430 DU         1 6NK       0.123000
     21 H6           0.1400    -0.7330    -3.0990 hn         1 6NK       0.084500
     22 H8           1.6890     0.1080     6.3130 hn         1 6NK       0.121000
     23 H9          -0.9820     0.8870     6.4010 h1         1 6NK       0.067000
     24 H10         -1.0540    -0.8670     6.3630 h1         1 6NK       0.067000
     25 H11          0.3940    -0.9710     8.3100 h1         1 6NK       0.059000
     26 H12          0.5590     0.7840     8.4080 h1         1 6NK       0.059000
     27 N4          -1.3470    -0.0290     8.9020 n3         1 6NK      -0.062000
     28 C9          -1.0790    -0.2740    10.3260 c3         1 6NK      -0.130500
     29 C10         -2.3930    -0.2100    11.1080 c3         1 6NK       0.065000
     30 O1          -3.3140    -1.1580    10.5590 os         1 6NK      -0.258000
     31 C14         -3.6000    -0.9470     9.1740 c3         1 6NK       0.065000
     32 C15         -2.2970    -1.0190     8.3730 c3         1 6NK      -0.130500
     33 H7          -0.6540    -1.2640    10.4360 h1         1 6NK       0.059250
     34 H13         -0.4000     0.4810    10.7040 h1         1 6NK       0.059250
     35 H14         -2.8140     0.7850    11.0210 h1         1 6NK       0.056500
     36 H15         -2.2190    -0.4460    12.1500 h1         1 6NK       0.056500
     37 H16         -4.1260    -0.0150     9.0080 h1         1 6NK       0.056500
     38 H17         -4.2240    -1.7720     8.8500 h1         1 6NK       0.056500
     39 H18         -1.8670    -2.0080     8.4790 h1         1 6NK       0.059250
     40 H19         -2.5010    -0.7840     7.3360 h1         1 6NK       0.059250
     41 H131         0.5670     0.7680    -2.5690 hn         1 6NK       0.084500
@<TRIPOS>BOND
     1     1     2 1   
     2     1     7 1   
     3     1     9 1   
     4     2     3 1   
     5     2    16 1   
     6     3     4 1   
     7     3    17 1   
     8     4     6 1   
     9     4    12 1   
    10     5     6 1   
    11     5    11 1   
    12     5    18 1   
    13     6     7 1   
    14     7    19 1   
    15     8     9 1   
    16     9    10 1   
    17     9    20 1   
    18    10    20 1   
    19    10    21 1   
    20    10    41 1   
    21    11    12 1   
    22    11    13 1   
    23    13    14 1   
    24    13    22 1   
    25    14    15 1   
    26    14    23 1   
    27    14    24 1   
    28    15    25 1   
    29    15    26 1   
    30    15    27 1   
    31    27    28 1   
    32    27    32 1   
    33    28    29 1   
    34    28    33 1   
    35    28    34 1   
    36    29    30 1   
    37    29    35 1   
    38    29    36 1   
    39    30    31 1   
    40    31    32 1   
    41    31    37 1   
    42    31    38 1   
    43    32    39 1   
    44    32    40 1   
@<TRIPOS>SUBSTRUCTURE
     1 6NK         1 TEMP              0 ****  ****    0 ROOT
