@<TRIPOS>MOLECULE
molecule
   41    43     1     0     0
SMALL
bcc


@<TRIPOS>ATOM
      1 C1           0.0000     0.0000     0.0000 ca         1 6NK      -0.241600
      2 C2           1.4020     0.0000     0.0000 ca         1 6NK      -0.100000
      3 C3           2.0920     0.0000     1.1740 ca         1 6NK      -0.090000
      4 C4           1.4030    -0.0000     2.3930 ca         1 6NK       0.209400
      5 N5          -0.3830    -0.0010     3.7340 na         1 6NK      -0.290300
      6 C12         -0.0040    -0.0000     2.4000 ca         1 6NK      -0.140200
      7 C13         -0.7000     0.0060     1.2070 ca         1 6NK       0.011000
      8 O           -1.9510    -0.0010    -1.2800 o          1 6NK      -0.470100
      9 C           -0.7360    -0.0020    -1.2790 c          1 6NK       0.572700
     10 N1          -0.0600    -0.0020    -2.4450 nz         1 6NK      -0.830400
     11 C5           0.7610    -0.0100     4.4780 cc         1 6NK       0.731700
     12 N2           1.8070    -0.0060     3.6880 nd         1 6NK      -0.663100
     13 N3           0.8080    -0.0160     5.8530 nu         1 6NK      -0.844200
     14 C6          -0.4340    -0.0190     6.6300 c3         1 6NK       0.210800
     15 C7          -0.1020    -0.0260     8.1240 c3         1 6NK       0.157800
     16 H1           1.9790     0.1730    -0.9000 ha         1 6NK       0.126000
     17 H2           3.1540    -0.1990     1.2590 ha         1 6NK       0.175000
     18 H3          -1.3210    -0.0010     4.0850 hn         1 6NK       0.320700
     19 H4          -1.7370    -0.2820     1.3400 ha         1 6NK       0.160000
     20 H5          -1.0410     0.1960    -2.4430 hn         1 6NK       0.500800
     21 H6           0.1400    -0.7330    -3.0990 hn         1 6NK       0.500800
     22 H8           1.6890     0.1080     6.3130 hn         1 6NK       0.486800
     23 H9          -0.9820     0.8870     6.4010 h1         1 6NK       0.053200
     24 H10         -1.0540    -0.8670     6.3630 h1         1 6NK       0.053200
     25 H11          0.3940    -0.9710     8.3100 h1         1 6NK       0.049700
     26 H12          0.5590     0.7840     8.4080 h1         1 6NK       0.049700
     27 N4          -1.3470    -0.0290     8.9020 n3         1 6NK      -0.729600
     28 C9          -1.0790    -0.2740    10.3260 c3         1 6NK       0.121300
     29 C10         -2.3930    -0.2100    11.1080 c3         1 6NK       0.139400
     30 O1          -3.3140    -1.1580    10.5590 os         1 6NK      -0.413600
     31 C14         -3.6000    -0.9470     9.1740 c3         1 6NK       0.139400
     32 C15         -2.2970    -1.0190     8.3730 c3         1 6NK       0.121300
     33 H7          -0.6540    -1.2640    10.4360 h1         1 6NK       0.045450
     34 H13         -0.4000     0.4810    10.7040 h1         1 6NK       0.045450
     35 H14         -2.8140     0.7850    11.0210 h1         1 6NK       0.059700
     36 H15         -2.2190    -0.4460    12.1500 h1         1 6NK       0.059700
     37 H16         -4.1260    -0.0150     9.0080 h1         1 6NK       0.059700
     38 H17         -4.2240    -1.7720     8.8500 h1         1 6NK       0.059700
     39 H18         -1.8670    -2.0080     8.4790 h1         1 6NK       0.045450
     40 H19         -2.5010    -0.7840     7.3360 h1         1 6NK       0.045450
     41 H131         0.5670     0.7680    -2.5690 hn         1 6NK       0.500800
@<TRIPOS>BOND
     1    15    14 1
     2    14    13 1
     3    13    11 1
     4    11    12 2
     5    11     5 1
     6    12     4 1
     7     5     6 1
     8     4     6 ar
     9     4     3 ar
    10     6     7 ar
    11     3     2 ar
    12     7     1 ar
    13     2     1 ar
    14     1     9 1
    15     9     8 2
    16     9    10 1
    17     2    16 1
    18     3    17 1
    19     5    18 1
    20     7    19 1
    21    10    20 1
    22    10    21 1
    23    13    22 1
    24    14    23 1
    25    14    24 1
    26    15    25 1
    27    15    26 1
    28    15    27 1
    29    27    28 1
    30    28    29 1
    31    29    30 1
    32    30    31 1
    33    31    32 1
    34    32    27 1
    35    28    33 1
    36    28    34 1
    37    29    35 1
    38    29    36 1
    39    31    37 1
    40    31    38 1
    41    32    39 1
    42    32    40 1
    43    41    10 1
@<TRIPOS>SUBSTRUCTURE
     1 6NK         1 TEMP              0 ****  ****    0 ROOT
