@<TRIPOS>MOLECULE
molecule
   43    45     1     0     0
SMALL
bcc


@<TRIPOS>ATOM
      1 CAI          0.0000     0.0000     0.0000 c3         1 6NL       0.122700
      2 OAH          1.4290     0.0000     0.0000 os         1 6NL      -0.306900
      3 CAE          2.0450     0.0000     1.2100 ca         1 6NL       0.157100
      4 CAF          3.4380    -0.0010     1.2810 ca         1 6NL       0.061100
      5 CAA          4.0670    -0.0010     2.5100 ca         1 6NL      -0.096000
      6 OAG          4.1770    -0.0020     0.1400 oh         1 6NL      -0.505100
      7 CAD          1.2870     0.0070     2.3740 ca         1 6NL      -0.231000
      8 CAC          1.9060     0.0120     3.6040 ca         1 6NL      -0.060000
      9 CAB          3.3040    -0.0000     3.6840 ca         1 6NL      -0.165800
     10 CAJ          3.9670     0.0050     4.9940 ce         1 6NL      -0.256200
     11 CAK          5.0950    -0.7160     5.1850 cf         1 6NL      -0.131400
     12 CAM          5.5610    -1.6790     4.1230 c3         1 6NL      -0.101900
     13 CAL          5.8380    -0.5670     6.3830 c          1 6NL       0.575900
     14 OAN          5.4000     0.1160     7.2910 o          1 6NL      -0.483100
     15 CAO          7.1440    -1.2400     6.5310 ca         1 6NL      -0.126600
     16 CAT          7.5560    -1.7030     7.7830 ca         1 6NL      -0.168000
     17 CAP          7.9680    -1.4210     5.4170 ca         1 6NL      -0.130000
     18 CAQ          9.1880    -2.0570     5.5550 ca         1 6NL       0.072100
     19 OAW         10.1580    -2.3580     4.6420 os         1 6NL      -0.325900
     20 CAX         11.3380    -2.6410     5.4160 c3         1 6NL       0.330200
     21 OAY         10.8200    -3.1080     6.6740 os         1 6NL      -0.311900
     22 CAR          9.5950    -2.5180     6.8060 ca         1 6NL       0.035100
     23 CAS          8.7780    -2.3340     7.9180 ca         1 6NL       0.151100
     24 OAU          9.1790    -2.7840     9.1370 os         1 6NL      -0.316900
     25 CAV          8.2910    -2.5610    10.2350 c3         1 6NL       0.125700
     26 HAK         -0.3610    -0.0030    -1.0210 h1         1 6NL       0.046700
     27 HAJ         -0.3610    -0.8830     0.5130 h1         1 6NL       0.046700
     28 HAI         -0.3610     0.8860     0.5080 h1         1 6NL       0.046700
     29 HAA          5.1490    -0.0060     2.5660 ha         1 6NL       0.160000
     30 HAG          4.4180     0.8830    -0.0800 ho         1 6NL       0.421000
     31 HAD          0.2060     0.0150     2.3140 ha         1 6NL       0.147000
     32 HAC          1.3110     0.0140     4.5100 ha         1 6NL       0.154000
     33 HAL          3.2670    -0.7810     4.7380 ha         1 6NL       0.307000
     34 HAO          6.0960    -2.4980     4.5880 hc         1 6NL       0.054367
     35 HAN          4.7040    -2.0660     3.5850 hc         1 6NL       0.054367
     36 HAM          6.2190    -1.1640     3.4330 hc         1 6NL       0.054367
     37 HAT          6.9030    -1.5990     8.6410 ha         1 6NL       0.162000
     38 HAP          7.6810    -1.0040     4.4590 ha         1 6NL       0.152000
     39 HAY         11.9100    -3.4290     4.9390 h2         1 6NL       0.073200
     40 HAZ         11.9060    -1.7310     5.5670 h2         1 6NL       0.073200
     41 HAV          8.7330    -2.9550    11.1420 h1         1 6NL       0.045367
     42 HAW          7.3500    -3.0620    10.0450 h1         1 6NL       0.045367
     43 HAX          8.1180    -1.4980    10.3490 h1         1 6NL       0.045367
@<TRIPOS>BOND
     1    20    19 1   
     2    20    21 1   
     3    19    18 1   
     4    21    22 1   
     5    18    22 ar  
     6    18    17 ar  
     7    22    23 ar  
     8    17    15 ar  
     9    23    24 1   
    10    23    16 ar  
    11    24    25 1   
    12    15    16 ar  
    13    15    13 1   
    14    14    13 2   
    15    13    11 1   
    16    11    10 2   
    17    11    12 1   
    18    10     9 1   
    19     8     9 ar  
    20     8     7 ar  
    21     9     5 ar  
    22     7     3 ar  
    23     5     4 ar  
    24     3     4 ar  
    25     3     2 1   
    26     4     6 1   
    27     1     2 1   
    28     1    26 1   
    29     1    27 1   
    30     1    28 1   
    31     5    29 1   
    32     6    30 1   
    33     7    31 1   
    34     8    32 1   
    35    10    33 1   
    36    12    34 1   
    37    12    35 1   
    38    12    36 1   
    39    16    37 1   
    40    17    38 1   
    41    20    39 1   
    42    20    40 1   
    43    25    41 1   
    44    25    42 1   
    45    25    43 1   
@<TRIPOS>SUBSTRUCTURE
     1 6NL         1 TEMP              0 ****  ****    0 ROOT
