@<TRIPOS>MOLECULE
6NM
   31    33     1     0     0
SMALL
bcc


@<TRIPOS>ATOM
      1 C1          0.0260   -0.0220   -0.2150 ca        1 6NM     -0.134000
      2 C2          1.4140    0.0100   -0.0890 ca        1 6NM     -0.095000
      3 C6         -0.7830   -0.0340    0.9200 ca        1 6NM     -0.073000
      4 C17         4.8890    2.0680    4.1810 ca        1 6NM     -0.244800
      5 C21         2.9060    2.6750    2.9610 ca        1 6NM     -0.244800
      6 C4          1.1960    0.0220    2.3250 ca        1 6NM     -0.056000
      7 C18         4.5900    3.1070    5.0770 ca        1 6NM      0.396700
      8 C20         2.6970    3.6880    3.9120 ca        1 6NM      0.396700
      9 C13         5.6470    0.3180    1.8120 cc        1 6NM      0.310200
     10 C3          2.0070    0.0310    1.1820 ca        1 6NM     -0.035000
     11 C16         4.0280    1.8420    3.0930 ca        1 6NM      0.038000
     12 C12         4.3180    0.8010    2.1440 cc        1 6NM     -0.194300
     13 C5         -0.1910   -0.0100    2.1860 ca        1 6NM     -0.169300
     14 C11         3.4520    0.0450    1.3180 cd        1 6NM     -0.041300
     15 C7         -1.0750   -0.0060    3.4280 c3        1 6NM      0.688200
     16 N19         3.5170    3.9130    4.9570 nb        1 6NM     -0.664000
     17 N15         4.2870   -0.8030    0.5690 na        1 6NM     -0.011600
     18 N14         5.5740   -0.6470    0.8630 nd        1 6NM     -0.497800
     19 F8         -2.2670   -0.6720    3.2790 f         1 6NM     -0.233967
     20 F9         -0.5040   -0.5800    4.5380 f         1 6NM     -0.233967
     21 F10        -1.4430    1.2490    3.8490 f         1 6NM     -0.233967
     22 H1         -0.4350   -0.0360   -1.2150 ha        1 6NM      0.148000
     23 H2          2.0430    0.0300   -0.9920 ha        1 6NM      0.143000
     24 H6         -1.8810   -0.0660    0.8270 ha        1 6NM      0.156000
     25 H18         5.2470    3.3100    5.9420 h4        1 6NM      0.023600
     26 H21         2.2040    2.5400    2.1270 ha        1 6NM      0.145500
     27 H20         1.8230    4.3600    3.8340 h4        1 6NM      0.023600
     28 H4          1.6540    0.0410    3.3290 ha        1 6NM      0.168000
     29 H13         6.5960    0.6590    2.2300 h4        1 6NM      0.050100
     30 H15         3.9910   -1.4940   -0.0810 hn        1 6NM      0.325700
     31 H17         5.7780    1.4420    4.3320 ha        1 6NM      0.145500
@<TRIPOS>BOND
     1    1    2 ar  
     2    1    3 ar  
     3    1   22 1   
     4    2   10 ar  
     5    2   23 1   
     6    3   13 ar  
     7    3   24 1   
     8    4    7 ar  
     9    4   11 ar  
    10    4   31 1   
    11    5    8 ar  
    12    5   11 ar  
    13    5   26 1   
    14    6   10 ar  
    15    6   13 ar  
    16    6   28 1   
    17    7   16 ar  
    18    7   25 1   
    19    8   16 ar  
    20    8   27 1   
    21    9   12 1   
    22    9   18 2   
    23    9   29 1   
    24   10   14 1   
    25   11   12 1   
    26   12   14 2   
    27   13   15 1   
    28   14   17 1   
    29   15   19 1   
    30   15   20 1   
    31   15   21 1   
    32   17   18 1   
    33   17   30 1   
@<TRIPOS>SUBSTRUCTURE
     1 6NM         1 TEMP              0 ****  ****    0 ROOT
