@<TRIPOS>MOLECULE
molecule
   31    33     1     0     0
SMALL
bcc


@<TRIPOS>ATOM
      1 C1           0.0000     0.0000     0.0000 ca         1 6NM      -0.133000
      2 C2           1.3800     0.0000     0.0000 ca         1 6NM      -0.093000
      3 C6          -0.6950     0.0010     1.1960 ca         1 6NM      -0.075000
      4 C17          4.3640     1.8200     4.2800 ca         1 6NM      -0.248800
      5 C21          3.0780     2.8810     2.5540 ca         1 6NM      -0.248800
      6 C4           1.3680     0.0010     2.4140 ca         1 6NM      -0.048000
      7 C18          3.9300     2.8030     5.1450 ca         1 6NM       0.421200
      8 C20          2.6930     3.8240     3.4840 ca         1 6NM       0.421200
      9 C13          5.7050     0.4740     1.6760 cc         1 6NM       0.355200
     10 C3           2.0750     0.0000     1.2110 ca         1 6NM      -0.039000
     11 C16          3.9340     1.8490     2.9500 ca         1 6NM       0.030000
     12 C12          4.3760     0.8130     1.9850 cc         1 6NM      -0.254300
     13 C5          -0.0120     0.0020     2.4000 ca         1 6NM      -0.180300
     14 C11          3.5530    -0.0010     1.2180 cd         1 6NM      -0.014300
     15 C7          -0.7780     0.0030     3.6980 c3         1 6NM       0.674200
     16 N19          3.1210     3.7600     4.7300 nb         1 6NM      -0.692000
     17 N15          4.3660    -0.8010     0.4750 na         1 6NM      -0.031600
     18 N14          5.6920    -0.4800     0.7830 nd         1 6NM      -0.502800
     19 F8          -2.1510     0.0040     3.4300 f          1 6NM      -0.220300
     20 F9          -0.4470    -1.1390     4.4360 f          1 6NM      -0.220300
     21 F10         -0.4450     1.1450     4.4340 f          1 6NM      -0.220300
     22 H1          -0.5400    -0.0000    -0.9390 ha         1 6NM       0.144000
     23 H2           1.9230    -0.0010    -0.9370 ha         1 6NM       0.139000
     24 H6          -1.7780     0.0010     1.1910 ha         1 6NM       0.154000
     25 H18          4.2560     2.7890     6.1780 h4         1 6NM       0.024100
     26 H21          2.7230     2.9400     1.5320 ha         1 6NM       0.142000
     27 H20          2.0300     4.6280     3.1870 h4         1 6NM       0.024100
     28 H4           1.9010     0.0010     3.3580 ha         1 6NM       0.160000
     29 H13          6.5900     0.9270     2.1050 h4         1 6NM       0.057100
     30 H15          4.0670    -1.4980    -0.1780 hn         1 6NM       0.334700
     31 H17          5.0270     1.0370     4.6270 ha         1 6NM       0.142000
@<TRIPOS>BOND
     1     1     2 ar
     2     1     3 ar
     3     2    10 ar
     4     3    13 ar
     5     4     7 ar
     6     4    11 ar
     7     5     8 ar
     8     5    11 ar
     9     6    10 ar
    10     6    13 ar
    11     7    16 ar
    12     8    16 ar
    13     9    12 1
    14     9    18 2
    15    10    14 1
    16    11    12 1
    17    12    14 2
    18    13    15 1
    19    14    17 1
    20    15    19 1
    21    15    20 1
    22    15    21 1
    23    17    18 1
    24     1    22 1
    25     2    23 1
    26     3    24 1
    27     4    31 1
    28     7    25 1
    29     5    26 1
    30     8    27 1
    31     6    28 1
    32     9    29 1
    33    17    30 1
@<TRIPOS>SUBSTRUCTURE
     1 6NM         1 TEMP              0 ****  ****    0 ROOT
