@<TRIPOS>MOLECULE
molecule
   62    62     1     0     0
SMALL
bcc


@<TRIPOS>ATOM
      1 C1           0.0000     0.0000     0.0000 ca         1 6NN      -0.103000
      2 C2           1.3820     0.0000     0.0000 ca         1 6NN      -0.140000
      3 C3           2.0730     0.0000     1.1970 ca         1 6NN      -0.131000
      4 C9          -4.0240    -1.5240     1.2000 c          1 6NN       0.745100
      5 C12         -5.9970    -2.9540     1.2050 c3         1 6NN      -0.061200
      6 C20        -10.6350    -6.9380    -1.0280 c3         1 6NN      -0.092100
      7 C21         -8.4770    -6.6400    -2.2530 c3         1 6NN      -0.092100
      8 C22         -9.1920    -2.4120    -2.5180 c          1 6NN       0.637100
      9 C27         -9.4840    -2.0190    -6.6840 c3         1 6NN      -0.096100
     10 P13         -6.5810    -3.1840    -0.5060 p5         1 6NN       1.101500
     11 C6          -0.6910     0.0070     1.1960 ca         1 6NN      -0.083300
     12 C4           1.3810     0.0010     2.3940 ca         1 6NN      -0.140000
     13 C5          -0.0010     0.0070     2.3930 ca         1 6NN      -0.103000
     14 N16         -8.2510    -3.3980    -0.5060 n7         1 6NN      -0.906300
     15 C17         -8.7430    -3.6910    -1.8590 c3         1 6NN       0.163500
     16 C18         -9.9240    -4.6610    -1.7710 c3         1 6NN      -0.073400
     17 C25        -10.1220    -1.1950    -4.4130 c3         1 6NN       0.118000
     18 C26        -10.6360    -1.5010    -5.8210 c3         1 6NN      -0.092700
     19 C28        -11.2060    -0.2250    -6.4440 c3         1 6NN      -0.076400
     20 C29        -11.8320    -0.5550    -7.8010 c3         1 6NN      -0.092100
     21 O14         -5.8740    -4.4820    -1.1450 o          1 6NN      -0.800500
     22 N11         -4.5440    -2.7680     1.2040 ns         1 6NN      -0.521900
     23 O10         -4.7600    -0.5580     1.1970 o          1 6NN      -0.608000
     24 O8          -2.6880    -1.3540     1.2000 os         1 6NN      -0.448900
     25 H1          -0.5420     0.0000    -0.9380 ha         1 6NN       0.138500
     26 H2           1.9240    -0.0030    -0.9380 ha         1 6NN       0.122000
     27 H3           3.1560    -0.0020     1.1970 ha         1 6NN       0.118000
     28 H4          -2.5570     0.5280     2.0800 h1         1 6NN       0.054200
     29 H5          -2.5580     0.5230     0.3110 h1         1 6NN       0.054200
     30 H6          -6.4730    -2.0800     1.6340 h1         1 6NN       0.053200
     31 H7          -6.2490    -3.8280     1.7930 h1         1 6NN       0.053200
     32 H8          -8.9130    -5.8750    -0.3010 hc         1 6NN       0.077700
     33 H9         -10.2880    -7.9040    -0.6830 hc         1 6NN       0.030033
     34 H10        -11.1470    -7.0550    -1.9750 hc         1 6NN       0.030033
     35 H11        -11.3180    -6.5190    -0.2980 hc         1 6NN       0.030033
     36 H12         -9.0140    -6.8670    -3.1660 hc         1 6NN       0.030033
     37 H13         -8.0720    -7.5550    -1.8360 hc         1 6NN       0.030033
     38 H14         -7.6680    -5.9530    -2.4700 hc         1 6NN       0.030033
     39 H16         -9.7170    -3.0160    -7.0380 hc         1 6NN       0.038033
     40 H17         -8.5760    -2.0480    -6.0950 hc         1 6NN       0.038033
     41 H18          1.9230     0.0010     3.3320 ha         1 6NN       0.122000
     42 H19         -0.5430     0.0100     3.3310 ha         1 6NN       0.138500
     43 H20         -8.8210    -2.8810     0.1330 hn         1 6NN       0.394800
     44 H21         -7.9490    -4.1390    -2.4430 h1         1 6NN       0.113700
     45 H22        -10.6730    -4.2590    -1.1010 hc         1 6NN       0.027200
     46 H23        -10.3550    -4.7950    -2.7560 hc         1 6NN       0.027200
     47 H25        -10.9150    -0.7460    -3.8280 h1         1 6NN       0.049200
     48 H26         -9.2860    -0.5090    -4.4750 h1         1 6NN       0.049200
     49 H27        -11.4130    -2.2540    -5.7660 hc         1 6NN       0.044700
     50 H28        -11.9630     0.1900    -5.7890 hc         1 6NN       0.043200
     51 H29        -10.4100     0.4970    -6.5800 hc         1 6NN       0.043200
     52 H30        -11.0780    -0.4790    -8.5750 hc         1 6NN       0.029033
     53 H31        -12.6340     0.1430    -8.0080 hc         1 6NN       0.029033
     54 H32        -12.2280    -1.5640    -7.7800 hc         1 6NN       0.029033
     55 H34         -3.9380    -3.5640     1.1990 hn         1 6NN       0.322500
     56 C7          -2.1990     0.0130     1.1960 c3         1 6NN       0.215700
     57 O23         -9.1090    -1.3610    -1.9210 o          1 6NN      -0.583100
     58 C19         -9.4360    -6.0110    -1.2400 c3         1 6NN      -0.066700
     59 O15         -6.2360    -1.9900    -1.3110 o          1 6NN      -0.800500
     60 N24         -9.6860    -2.4380    -3.7720 ns         1 6NN      -0.602900
     61 H15         -9.3430    -1.3590    -7.5320 hc         1 6NN       0.038033
     62 H24         -9.7530    -3.3060    -4.2650 hn         1 6NN       0.305500
@<TRIPOS>BOND
     1    12    13 ar
     2    12     3 ar
     3    13    11 ar
     4     3     2 ar
     5    11    56 1
     6    11     1 ar
     7     2     1 ar
     8    56    24 1
     9    24     4 1
    10     4    23 2
    11     4    22 1
    12    22     5 1
    13     5    10 1
    14    59    10 1
    15    21    10 1
    16    10    14 1
    17    17    60 1
    18    17    18 1
    19    14    15 1
    20    60     8 1
    21     8    57 2
    22     8    15 1
    23    19    20 1
    24    19    18 1
    25    15    16 1
    26    18     9 1
    27    16    58 1
    28     6    58 1
    29    58     7 1
    30     1    25 1
    31     2    26 1
    32     3    27 1
    33    56    28 1
    34    56    29 1
    35     5    30 1
    36     5    31 1
    37    58    32 1
    38     6    33 1
    39     6    34 1
    40     6    35 1
    41     7    36 1
    42     7    37 1
    43     7    38 1
    44     9    61 1
    45     9    39 1
    46     9    40 1
    47    12    41 1
    48    13    42 1
    49    14    43 1
    50    15    44 1
    51    16    45 1
    52    16    46 1
    53    60    62 1
    54    17    47 1
    55    17    48 1
    56    18    49 1
    57    19    50 1
    58    19    51 1
    59    20    52 1
    60    20    53 1
    61    20    54 1
    62    22    55 1
@<TRIPOS>SUBSTRUCTURE
     1 6NN         1 TEMP              0 ****  ****    0 ROOT
