@<TRIPOS>MOLECULE
molecule
   62    67     1     0     0
SMALL
bcc


@<TRIPOS>ATOM
      1 C1           0.0000     0.0000     0.0000 ca         1 6NP       0.515200
      2 N1           1.3260     0.0000     0.0000 nb         1 6NP      -0.357000
      3 N2           2.0150     0.0000     1.0820 nb         1 6NP      -0.289000
      4 C2           1.4490    -0.0110     2.2810 cp         1 6NP       0.405800
      5 C3           0.0440    -0.0180     2.3880 cq         1 6NP      -0.100300
      6 C5          -0.6240    -0.0300     3.7110 cq         1 6NP      -0.015000
      7 C6          -1.6390     0.8830     4.0120 ca         1 6NP      -0.235800
      8 C7          -2.2350     0.8350     5.2570 ca         1 6NP       0.420200
      9 N3          -1.8560    -0.0540     6.1550 nb         1 6NP      -0.685000
     10 C8          -0.9020    -0.9320     5.9120 ca         1 6NP       0.420200
     11 C9          -0.2590    -0.9590     4.6910 ca         1 6NP      -0.235800
     12 C4          -0.6970    -0.0120     1.2060 ca         1 6NP      -0.200300
     13 C10          0.6680     0.0740    -4.7440 c3         1 6NP      -0.028100
     14 C11         -0.2860     1.2760    -6.7210 ca         1 6NP      -0.115000
     15 C12         -0.9180     1.2800    -7.9500 ca         1 6NP      -0.129000
     16 C13         -1.2870     0.0850    -8.5420 ca         1 6NP      -0.131000
     17 C14         -1.0220    -1.1120    -7.9040 ca         1 6NP      -0.129000
     18 C15         -0.3860    -1.1160    -6.6770 ca         1 6NP      -0.115000
     19 C16         -0.0210     0.0780    -6.0830 ca         1 6NP      -0.072300
     20 C17          2.2900    -0.0160     3.5000 cp         1 6NP      -0.153500
     21 C18          3.4360    -0.7880     3.5400 ca         1 6NP      -0.075000
     22 C19          4.2310    -0.7840     4.6980 ca         1 6NP      -0.045000
     23 C20          3.8400     0.0010     5.8110 ca         1 6NP      -0.027000
     24 C21          2.6650     0.7720     5.7400 ca         1 6NP      -0.119000
     25 C22          1.9120     0.7590     4.6100 ca         1 6NP      -0.111000
     26 C23          5.4070    -1.5530     4.7740 ca         1 6NP      -0.109000
     27 C24          6.1510    -1.5310     5.9130 ca         1 6NP      -0.128000
     28 C25          5.7670    -0.7590     7.0070 ca         1 6NP      -0.119000
     29 C26          4.6350    -0.0030     6.9690 ca         1 6NP      -0.120000
     30 C27         -0.3790     0.1410    -3.6300 c3         1 6NP       0.151500
     31 C28          0.3130     0.0120    -2.2720 c3         1 6NP       0.105800
     32 N4          -0.6950     0.0050    -1.2040 nh         1 6NP      -0.643300
     33 C29         -1.4020     1.2890    -1.2770 c3         1 6NP       0.098800
     34 C30         -2.0940     1.4190    -2.6350 c3         1 6NP       0.147800
     35 N5          -1.0870     1.4260    -3.7030 n7         1 6NP      -0.784200
     36 H6          -1.9550     1.6150     3.2800 ha         1 6NP       0.147500
     37 H7          -3.0230     1.5380     5.4990 h4         1 6NP       0.028100
     38 H8          -0.6250    -1.6460     6.6770 h4         1 6NP       0.028100
     39 H9           0.5230    -1.6830     4.4980 ha         1 6NP       0.147500
     40 H4          -1.7800    -0.0140     1.2250 ha         1 6NP       0.161000
     41 H101         1.2480    -0.8350    -4.6390 hc         1 6NP       0.052200
     42 H102         1.3260     0.9320    -4.6730 hc         1 6NP       0.052200
     43 H12         -1.1250     2.2180    -8.4500 ha         1 6NP       0.127000
     44 H13         -1.7840     0.0880    -9.5040 ha         1 6NP       0.126000
     45 H14         -1.3090    -2.0480    -8.3680 ha         1 6NP       0.127000
     46 H15         -0.1780    -2.0550    -6.1770 ha         1 6NP       0.128500
     47 H18          3.7880    -1.2830     2.6430 ha         1 6NP       0.153000
     48 H21          2.3600     1.3740     6.5870 ha         1 6NP       0.138000
     49 H22          1.0150     1.3640     4.5590 ha         1 6NP       0.138000
     50 H23          5.7180    -2.1580     3.9310 ha         1 6NP       0.136000
     51 H24          7.0570    -2.1240     5.9700 ha         1 6NP       0.131000
     52 H25          6.3780    -0.7600     7.9010 ha         1 6NP       0.130000
     53 H26          4.3490     0.5930     7.8270 ha         1 6NP       0.134000
     54 H27         -1.0900    -0.6670    -3.7490 h1         1 6NP       0.084700
     55 H281         0.8750    -0.9130    -2.2420 h1         1 6NP       0.065700
     56 H282         0.9820     0.8520    -2.1290 h1         1 6NP       0.065700
     57 H291        -0.6910     2.0980    -1.1570 h1         1 6NP       0.047200
     58 H292        -2.1440     1.3350    -0.4900 h1         1 6NP       0.047200
     59 H301        -2.6550     2.3450    -2.6650 h1         1 6NP       0.067700
     60 H302        -2.7640     0.5810    -2.7790 h1         1 6NP       0.067700
     61 HN5         -0.4390     2.1730    -3.5470 hn         1 6NP       0.348800
     62 H11          0.0030     2.2110    -6.2580 ha         1 6NP       0.128500
@<TRIPOS>BOND
     1     1     2 ar
     2     1    12 ar
     3     1    32 1
     4     2     3 ar
     5     3     4 ar
     6     4     5 2
     7     4    20 1
     8     5     6 1
     9     5    12 1
    10     6     7 1
    11     6    11 2
    12     7     8 ar
    13     7    36 1
    14     8     9 ar
    15     8    37 1
    16     9    10 ar
    17    10    11 ar
    18    10    38 1
    19    11    39 1
    20    12    40 1
    21    13    19 1
    22    13    30 1
    23    13    41 1
    24    13    42 1
    25    14    15 ar
    26    14    19 ar
    27    14    62 1
    28    15    16 ar
    29    15    43 1
    30    16    17 ar
    31    16    44 1
    32    17    18 ar
    33    17    45 1
    34    18    19 ar
    35    18    46 1
    36    20    21 ar
    37    20    25 ar
    38    21    22 ar
    39    21    47 1
    40    22    23 ar
    41    22    26 ar
    42    23    24 ar
    43    23    29 ar
    44    24    25 ar
    45    24    48 1
    46    25    49 1
    47    26    27 ar
    48    26    50 1
    49    27    28 ar
    50    27    51 1
    51    28    29 ar
    52    28    52 1
    53    29    53 1
    54    30    31 1
    55    30    35 1
    56    30    54 1
    57    31    32 1
    58    31    55 1
    59    31    56 1
    60    32    33 1
    61    33    34 1
    62    33    57 1
    63    33    58 1
    64    34    35 1
    65    34    59 1
    66    34    60 1
    67    35    61 1
@<TRIPOS>SUBSTRUCTURE
     1 6NP         1 TEMP              0 ****  ****    0 ROOT
