@<TRIPOS>MOLECULE
molecule
   43    45     1     0     0
SMALL
bcc


@<TRIPOS>ATOM
      1 C4           0.0000     0.0000     0.0000 ca         1 6NQ       0.458800
      2 C5           1.4040     0.0000     0.0000 ca         1 6NQ      -0.168200
      3 C6           2.0680     0.0000     1.2390 ca         1 6NQ       0.596200
      4 C8           0.7590    -0.0080    -2.0700 cc         1 6NQ       0.378700
      5 N1           1.3370    -0.0010     2.3490 nb         1 6NQ      -0.779000
      6 N3          -0.6470    -0.0000     1.1620 nb         1 6NQ      -0.807000
      7 PG          -1.9930    -5.4950   -10.8380 p5         1 6NQ       1.193800
      8 O1G         -1.8000    -7.0790   -10.6260 o          1 6NQ      -0.789833
      9 O2G         -0.7960    -4.9250   -11.7520 o          1 6NQ      -0.789833
     10 O3G         -3.2880    -5.2400   -11.5070 o          1 6NQ      -0.789833
     11 PB          -2.1610    -3.0590    -9.5210 p5         1 6NQ       1.362700
     12 O1B         -3.5770    -2.7600   -10.2290 o          1 6NQ      -0.806000
     13 O2B         -1.0680    -2.5180   -10.3580 o          1 6NQ      -0.806000
     14 N3B         -1.9630    -4.7200    -9.3430 n7         1 6NQ      -0.915400
     15 PA          -2.2580    -0.8350    -7.5640 p5         1 6NQ       1.432800
     16 O1A         -0.8900    -0.0450    -7.8790 o          1 6NQ      -0.850000
     17 O2A         -3.3810    -0.1740    -8.2650 o          1 6NQ      -0.850000
     18 O3A         -2.1280    -2.3570    -8.0730 os         1 6NQ      -0.722800
     19 C5'         -2.7980     0.3780    -5.2450 c3         1 6NQ       0.236400
     20 C4'         -3.0120     0.0360    -3.7690 c3         1 6NQ       0.119100
     21 O4'         -1.7870    -0.4560    -3.1990 os         1 6NQ      -0.367600
     22 C3'         -3.4050     1.3050    -2.9880 c3         1 6NQ       0.103100
     23 O3'         -4.6910     1.1430    -2.3860 oh         1 6NQ      -0.593800
     24 C2'         -2.3110     1.4360    -1.9020 c3         1 6NQ      -0.040300
     25 Br          -3.0920     1.9780    -0.1810 br         1 6NQ      -0.185400
     26 C1'         -1.7530    -0.0080    -1.8260 c3         1 6NQ       0.267800
     27 N9          -0.3790    -0.0050    -1.3190 na         1 6NQ      -0.262000
     28 N7           1.8030     0.0010    -1.2940 nd         1 6NQ      -0.609100
     29 N6           3.4500    -0.0000     1.3020 nv         1 6NQ      -1.057500
     30 C2           0.0170    -0.0010     2.2990 ca         1 6NQ       0.578900
     31 H1           0.7880    -0.0140    -3.1520 h5         1 6NQ       0.099800
     32 H5          -1.3910    -5.0800    -8.6050 hn         1 6NQ       0.362800
     33 H7          -3.6890     0.8520    -5.6380 h1         1 6NQ       0.027700
     34 H8          -1.9570     1.0540    -5.3410 h1         1 6NQ       0.027700
     35 H9          -3.7890    -0.7120    -3.6680 h1         1 6NQ       0.080700
     36 H10         -3.3920     2.1680    -3.6420 h1         1 6NQ       0.056700
     37 H11         -5.2610     1.8390    -2.6710 ho         1 6NQ       0.393000
     38 H12         -1.5390     2.1280    -2.2170 h1         1 6NQ       0.098700
     39 H13         -2.3920    -0.6280    -1.2090 h2         1 6NQ       0.088700
     40 H14          3.9490    -0.8670     1.3390 hn         1 6NQ       0.401800
     41 H15          3.9490     0.8660     1.3390 hn         1 6NQ       0.401800
     42 H16         -0.5220    -0.0160     3.2390 h5         1 6NQ       0.011100
     43 O5'         -2.5320    -0.8200    -5.9780 os         1 6NQ      -0.586200
@<TRIPOS>BOND
     1    23    22 1
     2    25    24 1
     3    22    24 1
     4    22    20 1
     5    24    26 1
     6    20    21 1
     7    20    19 1
     8    13    11 1
     9    26    21 1
    10    26    27 1
    11     6    30 ar
    12     6     1 ar
    13    30     5 ar
    14    19    43 1
    15    27     1 1
    16    27     4 1
    17     1     2 ar
    18    10     7 1
    19    18    11 1
    20    18    15 1
    21    11    12 1
    22    11    14 1
    23    43    15 1
    24     5     3 ar
    25     9     7 1
    26    15    17 1
    27    15    16 1
    28     7    14 1
    29     7     8 1
    30     4    28 2
    31     2     3 ar
    32     2    28 1
    33     3    29 1
    34     4    31 1
    35    14    32 1
    36    19    33 1
    37    19    34 1
    38    20    35 1
    39    22    36 1
    40    23    37 1
    41    24    38 1
    42    26    39 1
    43    29    40 1
    44    29    41 1
    45    30    42 1
@<TRIPOS>SUBSTRUCTURE
     1 6NQ         1 TEMP              0 ****  ****    0 ROOT
