@<TRIPOS>MOLECULE
molecule
   48    50     1     0     0
SMALL
bcc


@<TRIPOS>ATOM
      1 C4           0.0000     0.0000     0.0000 ca         1 6NR       0.501800
      2 C5           1.4040     0.0000     0.0000 ca         1 6NR      -0.329400
      3 C6           2.0790     0.0000     1.2270 ca         1 6NR       0.766200
      4 N1           1.3570    -0.0010     2.3440 nb         1 6NR      -0.775000
      5 C7           1.8120     0.0020    -1.4130 cc         1 6NR      -0.040900
      6 C8           0.6610     0.0020    -2.1440 cd         1 6NR      -0.032100
      7 N3          -0.6350     0.0030     1.1710 nb         1 6NR      -0.752000
      8 C           -3.0990    -3.9150   -10.4330 c          1 6NR       0.753600
      9 OXT         -1.6200    -4.2480   -10.4020 o          1 6NR      -0.754800
     10 CA          -3.2300    -2.5770    -9.7510 c3         1 6NR       0.069500
     11 N           -4.4980    -1.9480   -10.1450 nz         1 6NR      -0.820600
     12 CB          -3.2090    -2.7740    -8.2340 c3         1 6NR      -0.058400
     13 CG          -3.2160    -1.4090    -7.5430 c3         1 6NR      -0.025300
     14 C5'         -3.2020     0.0580    -5.1120 c3         1 6NR      -0.002300
     15 C4'         -3.1830     0.0340    -3.5820 c3         1 6NR       0.142100
     16 C3'         -3.2800     1.4700    -3.0200 c3         1 6NR       0.085100
     17 O3'         -4.6240     1.7690    -2.6410 oh         1 6NR      -0.568800
     18 C2'         -2.3550     1.4510    -1.7820 c3         1 6NR       0.093100
     19 O2'         -3.0990     1.7380    -0.5960 oh         1 6NR      -0.557800
     20 O4'         -1.9160    -0.4680    -3.1030 os         1 6NR      -0.401600
     21 C1'         -1.8110     0.0060    -1.7420 c3         1 6NR       0.257800
     22 N9          -0.4110     0.0010    -1.3070 na         1 6NR      -0.161100
     23 C2           0.0380    -0.0020     2.3020 ca         1 6NR       0.710900
     24 CN           3.1510     0.0040    -1.9210 cg         1 6NR       0.240500
     25 NN           4.2080     0.0200    -2.3370 n1         1 6NR      -0.374800
     26 N6           3.4630     0.0000     1.2740 nv         1 6NR      -1.078500
     27 H1           0.5930     0.0070    -3.2250 h4         1 6NR       0.194000
     28 H3          -2.4040    -1.9400   -10.0440 hx         1 6NR       0.122700
     29 H7          -2.4200    -3.3870    -7.8160 hc         1 6NR       0.097200
     30 H8          -4.1640    -3.2610    -8.0800 hc         1 6NR       0.097200
     31 H9          -4.1100    -0.8660    -7.8240 h1         1 6NR       0.043700
     32 H10         -2.3410    -0.8460    -7.8460 h1         1 6NR       0.043700
     33 H11         -2.2550     0.4350    -5.4790 h1         1 6NR       0.068200
     34 H12         -4.0040     0.7020    -5.4520 h1         1 6NR       0.068200
     35 H13         -3.9950    -0.5730    -3.1990 h1         1 6NR       0.094700
     36 H14         -2.9170     2.1840    -3.7490 h1         1 6NR       0.047700
     37 H15         -4.9280     2.5190    -3.1240 ho         1 6NR       0.403000
     38 H16         -1.5430     2.1560    -1.9070 h1         1 6NR       0.058700
     39 H17         -3.0790     2.6660    -0.4290 ho         1 6NR       0.411000
     40 H18         -2.4170    -0.6060    -1.0850 h2         1 6NR       0.117700
     41 H19         -0.4740    -0.0130     3.2560 h5         1 6NR       0.065100
     42 H20          3.9600    -0.8620     1.3760 hn         1 6NR       0.446800
     43 H21          3.9650     0.8630     1.2080 hn         1 6NR       0.446800
     44 O           -3.8150    -4.9190   -10.6770 o          1 6NR      -0.754800
     45 H5          -5.2090    -2.1860    -9.4820 hn         1 6NR       0.436467
     46 H2          -4.3840    -0.9540   -10.1690 hn         1 6NR       0.436467
     47 SD          -3.1910    -1.6420    -5.7430 ss         1 6NR      -0.270200
     48 H4          -4.7650    -2.2750   -11.0530 hn         1 6NR       0.436467
@<TRIPOS>BOND
     1    19    18 1   
     2    25    24 3   
     3    26     3 1   
     4    24     5 1   
     5     5     2 1   
     6     5     6 2   
     7     3     2 ar  
     8     3     4 ar  
     9    18    21 1   
    10    18    16 1   
    11     2     1 ar  
    12     6    22 1   
    13     4    23 ar  
    14     1    22 1   
    15     1     7 ar  
    16    22    21 1   
    17    23     7 ar  
    18    17    16 1   
    19    21    20 1   
    20    16    15 1   
    21    20    15 1   
    22    15    14 1   
    23    14    47 1   
    24    47    13 1   
    25    12    13 1   
    26    12    10 1   
    27    10    11 1   
    28    10     8 1   
    29     8    44 1   
    30     8     9 1   
    31     6    27 1   
    32    10    28 1   
    33    11    48 1   
    34    11    45 1   
    35    12    29 1   
    36    12    30 1   
    37    13    31 1   
    38    13    32 1   
    39    14    33 1   
    40    14    34 1   
    41    15    35 1   
    42    16    36 1   
    43    17    37 1   
    44    18    38 1   
    45    19    39 1   
    46    21    40 1   
    47    23    41 1   
    48    26    42 1   
    49    26    43 1   
    50    46    11 1   
@<TRIPOS>SUBSTRUCTURE
     1 6NR         1 TEMP              0 ****  ****    0 ROOT
