@<TRIPOS>MOLECULE
6NR
   48    50     1     0     0
SMALL
bcc


@<TRIPOS>ATOM
      1 C4           0.0000     0.0000     0.0000 ca         1 6NR       0.276800
      2 C5           1.4040     0.0000     0.0000 ca         1 6NR      -0.332400
      3 C6           2.0790     0.0000     1.2270 ca         1 6NR       0.595200
      4 N1           1.3570    -0.0010     2.3440 nb         1 6NR      -0.661000
      5 C7           1.8120     0.0020    -1.4130 cc         1 6NR       0.021100
      6 C8           0.6610     0.0020    -2.1440 cd         1 6NR      -0.201100
      7 N3          -0.6350     0.0030     1.1710 nb         1 6NR      -0.615000
      8 C           -3.0990    -3.9150   -10.4330 c          1 6NR       0.823600
      9 OXT         -1.6200    -4.2480   -10.4020 o          1 6NR      -0.783300
     10 CA          -3.2300    -2.5770    -9.7510 c3         1 6NR      -0.119500
     11 N           -4.4980    -1.9480   -10.1450 nz         1 6NR       0.035400
     12 CB          -3.2090    -2.7740    -8.2340 c3         1 6NR       0.019600
     13 CG          -3.2160    -1.4090    -7.5430 c3         1 6NR       0.049700
     14 C5'         -3.2020     0.0580    -5.1120 c3         1 6NR       0.067700
     15 C4'         -3.1830     0.0340    -3.5820 c3         1 6NR       0.186100
     16 C3'         -3.2800     1.4700    -3.0200 c3         1 6NR       0.123100
     17 O3'         -4.6240     1.7690    -2.6410 oh         1 6NR      -0.546800
     18 C2'         -2.3550     1.4510    -1.7820 c3         1 6NR       0.129100
     19 O2'         -3.0990     1.7380    -0.5960 oh         1 6NR      -0.538800
     20 O4'         -1.9160    -0.4680    -3.1030 os         1 6NR      -0.383600
     21 C1'         -1.8110     0.0060    -1.7420 c3         1 6NR       0.140800
     22 N9          -0.4110     0.0010    -1.3070 na         1 6NR       0.313900
     23 C2           0.0380    -0.0020     2.3020 ca         1 6NR       0.646900
     24 CN           3.1510     0.0040    -1.9210 cg         1 6NR       0.235500
     25 NN           4.2080     0.0200    -2.3370 n1         1 6NR      -0.395800
     26 N6           3.4630     0.0000     1.2740 nv         1 6NR      -0.652500
     27 H1           0.5930     0.0070    -3.2250 h4         1 6NR       0.162000
     28 H3          -2.4040    -1.9400   -10.0440 hx         1 6NR       0.101700
     29 H7          -2.4200    -3.3870    -7.8160 hc         1 6NR       0.063700
     30 H8          -4.1640    -3.2610    -8.0800 hc         1 6NR       0.063700
     31 H9          -4.1100    -0.8660    -7.8240 h1         1 6NR       0.020700
     32 H10         -2.3410    -0.8460    -7.8460 h1         1 6NR       0.020700
     33 H11         -2.2550     0.4350    -5.4790 h1         1 6NR       0.042200
     34 H12         -4.0040     0.7020    -5.4520 h1         1 6NR       0.042200
     35 H13         -3.9950    -0.5730    -3.1990 h1         1 6NR       0.060700
     36 H14         -2.9170     2.1840    -3.7490 h1         1 6NR       0.013700
     37 H15         -4.9280     2.5190    -3.1240 ho         1 6NR       0.388000
     38 H16         -1.5430     2.1560    -1.9070 h1         1 6NR       0.020700
     39 H17         -3.0790     2.6660    -0.4290 ho         1 6NR       0.395000
     40 H18         -2.4170    -0.6060    -1.0850 h2         1 6NR       0.075700
     41 H19         -0.4740    -0.0130     3.2560 h5         1 6NR       0.001100
     42 H20          3.9600    -0.8620     1.3760 hn         1 6NR       0.285800
     43 H21          3.9650     0.8630     1.2080 hn         1 6NR       0.285800
     44 O           -3.8150    -4.9190   -10.6770 o          1 6NR      -0.783300
     45 H5          -5.2090    -2.1860    -9.4820 hn         1 6NR       0.214800
     46 H2          -4.3840    -0.9540   -10.1690 hn         1 6NR       0.214800
     47 SD          -3.1910    -1.6420    -5.7430 ss         1 6NR      -0.340200
     48 H4          -4.7650    -2.2750   -11.0530 hn         1 6NR       0.214800
@<TRIPOS>BOND
     1     1     2 ar  
     2     1     7 ar  
     3     1    22 1   
     4     2     3 ar  
     5     2     5 1   
     6     3     4 ar  
     7     3    26 1   
     8     4    23 ar  
     9     5     6 2   
    10     5    24 1   
    11     6    22 1   
    12     6    27 1   
    13     7    23 ar  
    14     8     9 1   
    15     8    10 1   
    16     8    44 1   
    17    10    11 1   
    18    10    12 1   
    19    10    28 1   
    20    11    45 1   
    21    11    46 1   
    22    11    48 1   
    23    12    13 1   
    24    12    29 1   
    25    12    30 1   
    26    13    31 1   
    27    13    32 1   
    28    13    47 1   
    29    14    15 1   
    30    14    33 1   
    31    14    34 1   
    32    14    47 1   
    33    15    16 1   
    34    15    20 1   
    35    15    35 1   
    36    16    17 1   
    37    16    18 1   
    38    16    36 1   
    39    17    37 1   
    40    18    19 1   
    41    18    21 1   
    42    18    38 1   
    43    19    39 1   
    44    20    21 1   
    45    21    22 1   
    46    21    40 1   
    47    23    41 1   
    48    24    25 3   
    49    26    42 1   
    50    26    43 1   
@<TRIPOS>SUBSTRUCTURE
     1 6NR         1 TEMP              0 ****  ****    0 ROOT
