@<TRIPOS>MOLECULE
molecule
   45    47     1     0     0
SMALL
bcc


@<TRIPOS>ATOM
      1 F2           0.0000     0.0000     0.0000 f          1 6NS      -0.143900
      2 C9           1.3510     0.0000     0.0000 ca         1 6NS      -0.203700
      3 C10          2.0570     0.0000     1.1880 ca         1 6NS       0.450200
      4 N2           3.3810    -0.0000     1.1560 nb         1 6NS      -0.792000
      5 C11          4.0340     0.0010     0.0010 ca         1 6NS       0.797800
      6 N3           3.3930     0.0010    -1.1620 nb         1 6NS      -0.793000
      7 C8           2.0660    -0.0050    -1.2020 ca         1 6NS       0.736200
      8 N1           1.3990    -0.0050    -2.4180 nu         1 6NS      -0.839900
      9 C5           2.1590     0.0030    -3.6710 c3         1 6NS       0.264500
     10 C6           1.3020     0.6120    -4.7830 c3         1 6NS      -0.205400
     11 C7           1.0310     2.0610    -4.4720 c          1 6NS       0.882600
     12 O2           0.2950     2.8030    -5.3140 o          1 6NS      -0.844300
     13 O1           1.4770     2.5570    -3.4640 o          1 6NS      -0.844300
     14 C2           2.5370    -1.4310    -4.0460 c3         1 6NS      -0.091000
     15 C4           3.3940    -2.0400    -2.9340 c3         1 6NS      -0.078100
     16 C3           1.2670    -2.2640    -4.2250 c3         1 6NS      -0.078100
     17 C1           3.3310    -1.4230    -5.3540 c3         1 6NS      -0.078100
     18 C12          5.5140     0.0000     0.0080 cc         1 6NS      -0.195000
     19 C15          6.3880     0.0000     1.1920 ca         1 6NS      -0.161100
     20 C16          6.1620    -0.0010     2.5680 ca         1 6NS      -0.068000
     21 C17          7.2640    -0.0020     3.4080 ca         1 6NS      -0.039400
     22 F1           7.0990    -0.0030     4.7490 f          1 6NS      -0.145900
     23 C18          8.5380    -0.0020     2.8570 ca         1 6NS       0.405200
     24 N5           8.7250    -0.0010     1.5540 nb         1 6NS      -0.699000
     25 C14          7.7070     0.0010     0.7040 ca         1 6NS       0.439800
     26 N4           7.6330     0.0010    -0.6710 na         1 6NS      -0.280100
     27 C13          6.3310    -0.0050    -1.0760 cd         1 6NS      -0.038100
     28 H1           1.5330    -0.0010     2.1370 h4         1 6NS       0.024100
     29 H2           0.3980     0.0260    -2.4400 hn         1 6NS       0.461800
     30 H3           3.0580     0.5930    -3.5430 h1         1 6NS       0.090700
     31 H4           1.8300     0.5380    -5.7260 hc         1 6NS       0.043200
     32 H5           0.3640     0.0760    -4.8510 hc         1 6NS       0.043200
     33 H7           3.7620    -3.0080    -3.2510 hc         1 6NS       0.030033
     34 H8           4.2320    -1.3860    -2.7240 hc         1 6NS       0.030033
     35 H9           2.7950    -2.1570    -2.0390 hc         1 6NS       0.030033
     36 H10          0.6300    -2.1420    -3.3570 hc         1 6NS       0.030033
     37 H11          0.7390    -1.9310    -5.1100 hc         1 6NS       0.030033
     38 H12          1.5320    -3.3080    -4.3340 hc         1 6NS       0.030033
     39 H13          3.9280    -2.3250    -5.4200 hc         1 6NS       0.030033
     40 H14          2.6470    -1.3810    -6.1920 hc         1 6NS       0.030033
     41 H15          3.9820    -0.5570    -5.3760 hc         1 6NS       0.030033
     42 H16          5.1850     0.2570     2.9570 ha         1 6NS       0.179000
     43 H17          9.3980    -0.0020     3.5150 h4         1 6NS       0.026100
     44 H18          8.4230    -0.0010    -1.2850 hn         1 6NS       0.303700
     45 H19          5.9990    -0.0110    -2.1070 h4         1 6NS       0.199000
@<TRIPOS>BOND
     1    24    25 ar
     2    24    23 ar
     3    26    25 1
     4    26    27 1
     5    25    19 ar
     6    23    21 ar
     7    27    18 2
     8    19    18 1
     9    19    20 ar
    10    21    20 ar
    11    21    22 1
    12    18     5 1
    13     4     5 ar
    14     4     3 ar
    15     5     6 ar
    16    13    11 1
    17     6     7 ar
    18     3     2 ar
    19    11    12 1
    20    11    10 1
    21     7     2 ar
    22     7     8 1
    23     2     1 1
    24     9    10 1
    25     9     8 1
    26     9    14 1
    27    16    14 1
    28    15    14 1
    29    14    17 1
    30     3    28 1
    31     8    29 1
    32     9    30 1
    33    10    31 1
    34    10    32 1
    35    15    33 1
    36    15    34 1
    37    15    35 1
    38    16    36 1
    39    16    37 1
    40    16    38 1
    41    17    39 1
    42    17    40 1
    43    17    41 1
    44    20    42 1
    45    23    43 1
    46    26    44 1
    47    27    45 1
@<TRIPOS>SUBSTRUCTURE
     1 6NS         1 TEMP              0 ****  ****    0 ROOT
