@<TRIPOS>MOLECULE
6NS
   45    47     1     0     0
SMALL
bcc


@<TRIPOS>ATOM
      1 F2           0.0000     0.0000     0.0000 f          1 6NS      -0.122900
      2 C9           1.3510     0.0000     0.0000 ca         1 6NS      -0.241700
      3 C10          2.0570     0.0000     1.1880 ca         1 6NS       0.456200
      4 N2           3.3810    -0.0000     1.1560 nb         1 6NS      -0.706000
      5 C11          4.0340     0.0010     0.0010 ca         1 6NS       0.734800
      6 N3           3.3930     0.0010    -1.1620 nb         1 6NS      -0.688000
      7 C8           2.0660    -0.0050    -1.2020 ca         1 6NS       0.551200
      8 N1           1.3990    -0.0050    -2.4180 nu         1 6NS      -0.388900
      9 C5           2.1590     0.0030    -3.6710 c3         1 6NS       0.141500
     10 C6           1.3020     0.6120    -4.7830 c3         1 6NS      -0.164400
     11 C7           1.0310     2.0610    -4.4720 c          1 6NS       0.971600
     12 O2           0.2950     2.8030    -5.3140 o          1 6NS      -0.893800
     13 O1           1.4770     2.5570    -3.4640 o          1 6NS      -0.893800
     14 C2           2.5370    -1.4310    -4.0460 c3         1 6NS      -0.086000
     15 C4           3.3940    -2.0400    -2.9340 c3         1 6NS      -0.005100
     16 C3           1.2670    -2.2640    -4.2250 c3         1 6NS      -0.005100
     17 C1           3.3310    -1.4230    -5.3540 c3         1 6NS      -0.005100
     18 C12          5.5140     0.0000     0.0080 cc         1 6NS      -0.193000
     19 C15          6.3880     0.0000     1.1920 ca         1 6NS      -0.159100
     20 C16          6.1620    -0.0010     2.5680 ca         1 6NS      -0.031000
     21 C17          7.2640    -0.0020     3.4080 ca         1 6NS      -0.064400
     22 F1           7.0990    -0.0030     4.7490 f          1 6NS      -0.130900
     23 C18          8.5380    -0.0020     2.8570 ca         1 6NS       0.377200
     24 N5           8.7250    -0.0010     1.5540 nb         1 6NS      -0.564000
     25 C14          7.7070     0.0010     0.7040 ca         1 6NS       0.202800
     26 N4           7.6330     0.0010    -0.6710 na         1 6NS       0.261900
     27 C13          6.3310    -0.0050    -1.0760 cd         1 6NS      -0.221100
     28 H1           1.5330    -0.0010     2.1370 h4         1 6NS      -0.019900
     29 H2           0.3980     0.0260    -2.4400 hn         1 6NS       0.303800
     30 H3           3.0580     0.5930    -3.5430 h1         1 6NS       0.073700
     31 H4           1.8300     0.5380    -5.7260 hc         1 6NS       0.024200
     32 H5           0.3640     0.0760    -4.8510 hc         1 6NS       0.024200
     33 H7           3.7620    -3.0080    -3.2510 hc         1 6NS       0.005367
     34 H8           4.2320    -1.3860    -2.7240 hc         1 6NS       0.005367
     35 H9           2.7950    -2.1570    -2.0390 hc         1 6NS       0.005367
     36 H10          0.6300    -2.1420    -3.3570 hc         1 6NS       0.005367
     37 H11          0.7390    -1.9310    -5.1100 hc         1 6NS       0.005367
     38 H12          1.5320    -3.3080    -4.3340 hc         1 6NS       0.005367
     39 H13          3.9280    -2.3250    -5.4200 hc         1 6NS       0.005367
     40 H14          2.6470    -1.3810    -6.1920 hc         1 6NS       0.005367
     41 H15          3.9820    -0.5570    -5.3760 hc         1 6NS       0.005367
     42 H16          5.1850     0.2570     2.9570 ha         1 6NS       0.147000
     43 H17          9.3980    -0.0020     3.5150 h4         1 6NS      -0.017900
     44 H18          8.4230    -0.0010    -1.2850 hn         1 6NS       0.115700
     45 H19          5.9990    -0.0110    -2.1070 h4         1 6NS       0.166000
@<TRIPOS>BOND
     1     1     2 1   
     2     2     3 ar  
     3     2     7 ar  
     4     3     4 ar  
     5     3    28 1   
     6     4     5 ar  
     7     5     6 ar  
     8     5    18 1   
     9     6     7 ar  
    10     7     8 1   
    11     8     9 1   
    12     8    29 1   
    13     9    10 1   
    14     9    14 1   
    15     9    30 1   
    16    10    11 1   
    17    10    31 1   
    18    10    32 1   
    19    11    12 1   
    20    11    13 1   
    21    14    15 1   
    22    14    16 1   
    23    14    17 1   
    24    15    33 1   
    25    15    34 1   
    26    15    35 1   
    27    16    36 1   
    28    16    37 1   
    29    16    38 1   
    30    17    39 1   
    31    17    40 1   
    32    17    41 1   
    33    18    19 1   
    34    18    27 2   
    35    19    20 ar  
    36    19    25 ar  
    37    20    21 ar  
    38    20    42 1   
    39    21    22 1   
    40    21    23 ar  
    41    23    24 ar  
    42    23    43 1   
    43    24    25 ar  
    44    25    26 1   
    45    26    27 1   
    46    26    44 1   
    47    27    45 1   
@<TRIPOS>SUBSTRUCTURE
     1 6NS         1 TEMP              0 ****  ****    0 ROOT
