@<TRIPOS>MOLECULE
6NT
   16    17     1     0     0
SMALL
bcc


@<TRIPOS>ATOM
      1 O21          0.0000     0.0000     0.0000 o          1 6NT      -0.444500
      2 NO1          1.2170     0.0000     0.0000 no         1 6NT       1.043200
      3 O11          1.8270     0.0000     1.0550 o          1 6NT      -0.444500
      4 C5           1.9580    -0.0070    -1.2820 ca         1 6NT      -0.406200
      5 C6           1.2570    -0.0130    -2.4810 ca         1 6NT      -0.070000
      6 C7           1.9170    -0.0180    -3.6750 ca         1 6NT      -0.017000
      7 C7A          3.3180    -0.0200    -3.6960 ca         1 6NT       0.029400
      8 N1           4.2260    -0.0240    -4.6930 nc         1 6NT      -0.130400
      9 C3A          4.0210    -0.0130    -2.4790 ca         1 6NT      -0.268200
     10 C4           3.3240    -0.0010    -1.2750 ca         1 6NT       0.008000
     11 N3           5.3550    -0.0140    -2.8090 na         1 6NT       0.433900
     12 N2           5.4180    -0.0220    -4.2110 nd         1 6NT      -0.302400
     13 H6           0.1740    -0.0130    -2.4680 ha         1 6NT       0.140000
     14 H4           3.8600     0.1030    -0.3390 ha         1 6NT       0.134000
     15 H7           1.3590    -0.0230    -4.6040 ha         1 6NT       0.125000
     16 H3           6.1300    -0.0110    -2.1750 hn         1 6NT       0.169700
@<TRIPOS>BOND
     1     1     2 1   
     2     2     3 1   
     3     2     4 1   
     4     4     5 ar  
     5     4    10 ar  
     6     5     6 ar  
     7     5    13 1   
     8     6     7 ar  
     9     6    15 1   
    10     7     8 1   
    11     7     9 ar  
    12     8    12 2   
    13     9    10 ar  
    14     9    11 1   
    15    10    14 1   
    16    11    12 1   
    17    11    16 1   
@<TRIPOS>SUBSTRUCTURE
     1 6NT         1 TEMP              0 ****  ****    0 ROOT
