@<TRIPOS>MOLECULE
molecule
   46    49     1     0     0
SMALL
bcc


@<TRIPOS>ATOM
      1 F2           0.0000     0.0000     0.0000 f          1 6NU      -0.142900
      2 C10          1.3510     0.0000     0.0000 ca         1 6NU      -0.204700
      3 C11          2.0590     0.0000     1.1880 ca         1 6NU       0.451200
      4 N2           3.3840    -0.0000     1.1540 nb         1 6NU      -0.791000
      5 C12          4.0350    -0.0000    -0.0010 ca         1 6NU       0.798800
      6 N3           3.3930    -0.0000    -1.1640 nb         1 6NU      -0.793000
      7 C9           2.0660    -0.0060    -1.2030 ca         1 6NU       0.734200
      8 N1           1.3980    -0.0050    -2.4180 nu         1 6NU      -0.837900
      9 C6           2.1570     0.0010    -3.6710 c3         1 6NU       0.267500
     10 C7           1.3010     0.6100    -4.7830 c3         1 6NU      -0.203400
     11 C8           1.0300     2.0600    -4.4720 c          1 6NU       0.883600
     12 O2           0.2930     2.8010    -5.3150 o          1 6NU      -0.844300
     13 O1           1.4770     2.5550    -3.4660 o          1 6NU      -0.844300
     14 C2           2.5360    -1.4330    -4.0460 cy         1 6NU      -0.102000
     15 C5           3.3700    -2.1510    -2.9730 cy         1 6NU      -0.090900
     16 C4           2.5370    -3.4060    -3.2770 cy         1 6NU      -0.114400
     17 C3           1.4250    -2.4580    -3.7600 cy         1 6NU      -0.090900
     18 C1           3.1230    -1.5440    -5.4540 c3         1 6NU      -0.062100
     19 C13          5.5140    -0.0010     0.0050 cc         1 6NU      -0.197000
     20 C16          6.3890    -0.0010     1.1880 ca         1 6NU      -0.161100
     21 C17          6.1650    -0.0010     2.5640 ca         1 6NU      -0.069000
     22 C18          7.2670    -0.0020     3.4030 ca         1 6NU      -0.039400
     23 F1           7.1040    -0.0030     4.7440 f          1 6NU      -0.145900
     24 C19          8.5410    -0.0030     2.8520 ca         1 6NU       0.405200
     25 N5           8.7260    -0.0020     1.5490 nb         1 6NU      -0.699000
     26 C15          7.7080    -0.0010     0.6990 ca         1 6NU       0.438800
     27 N4           7.6320    -0.0010    -0.6750 na         1 6NU      -0.278100
     28 C14          6.3310    -0.0070    -1.0790 cd         1 6NU      -0.035100
     29 H1           1.5350     0.0000     2.1370 h4         1 6NU       0.025100
     30 H2           0.3990     0.0340    -2.4390 hn         1 6NU       0.462800
     31 H3           3.0570     0.5910    -3.5450 h1         1 6NU       0.091700
     32 H4           1.8280     0.5350    -5.7260 hc         1 6NU       0.042700
     33 H5           0.3620     0.0740    -4.8510 hc         1 6NU       0.042700
     34 H7           3.2030    -1.7630    -1.9750 hc         1 6NU       0.053700
     35 H8           4.4130    -2.2570    -3.2470 hc         1 6NU       0.053700
     36 H9           2.2650    -3.9600    -2.3870 hc         1 6NU       0.039700
     37 H10          2.9550    -4.0090    -4.0740 hc         1 6NU       0.039700
     38 H11          0.9290    -2.8080    -4.6570 hc         1 6NU       0.053700
     39 H12          0.7570    -2.1490    -2.9650 hc         1 6NU       0.053700
     40 H13          2.3190    -1.5940    -6.1780 hc         1 6NU       0.032700
     41 H14          3.7280    -2.4390    -5.5240 hc         1 6NU       0.032700
     42 H15          3.7390    -0.6760    -5.6580 hc         1 6NU       0.032700
     43 H16          5.1880     0.2570     2.9540 ha         1 6NU       0.179000
     44 H17          9.4020    -0.0040     3.5090 h4         1 6NU       0.026100
     45 H18          8.4210    -0.0040    -1.2910 hn         1 6NU       0.303700
     46 H19          5.9990    -0.0150    -2.1100 h4         1 6NU       0.201000
@<TRIPOS>BOND
     1    27    26 1   
     2    27    28 1   
     3    25    26 ar  
     4    25    24 ar  
     5    26    20 ar  
     6    24    22 ar  
     7    28    19 2   
     8    20    19 1   
     9    20    21 ar  
    10    19     5 1   
    11    22    21 ar  
    12    22    23 1   
    13     4     5 ar  
    14     4     3 ar  
    15     5     6 ar  
    16    13    11 1   
    17     6     7 ar  
    18     3     2 ar  
    19    11    12 1   
    20    11    10 1   
    21     7     2 ar  
    22     7     8 1   
    23     2     1 1   
    24     9    10 1   
    25     9     8 1   
    26     9    14 1   
    27    16    17 1   
    28    16    15 1   
    29    17    14 1   
    30    15    14 1   
    31    14    18 1   
    32     3    29 1   
    33     8    30 1   
    34     9    31 1   
    35    10    32 1   
    36    10    33 1   
    37    15    34 1   
    38    15    35 1   
    39    16    36 1   
    40    16    37 1   
    41    17    38 1   
    42    17    39 1   
    43    18    40 1   
    44    18    41 1   
    45    18    42 1   
    46    21    43 1   
    47    24    44 1   
    48    27    45 1   
    49    28    46 1   
@<TRIPOS>SUBSTRUCTURE
     1 6NU         1 TEMP              0 ****  ****    0 ROOT
