@<TRIPOS>MOLECULE
6NU
   46    49     1     0     0
SMALL
bcc


@<TRIPOS>ATOM
      1 F2           0.0000     0.0000     0.0000 f          1 6NU      -0.122900
      2 C10          1.3510     0.0000     0.0000 ca         1 6NU      -0.242700
      3 C11          2.0590     0.0000     1.1880 ca         1 6NU       0.457200
      4 N2           3.3840    -0.0000     1.1540 nb         1 6NU      -0.705000
      5 C12          4.0350    -0.0000    -0.0010 ca         1 6NU       0.736800
      6 N3           3.3930    -0.0000    -1.1640 nb         1 6NU      -0.686000
      7 C9           2.0660    -0.0060    -1.2030 ca         1 6NU       0.548200
      8 N1           1.3980    -0.0050    -2.4180 nu         1 6NU      -0.386900
      9 C6           2.1570     0.0010    -3.6710 c3         1 6NU       0.148500
     10 C7           1.3010     0.6100    -4.7830 c3         1 6NU      -0.159400
     11 C8           1.0300     2.0600    -4.4720 c          1 6NU       0.971600
     12 O2           0.2930     2.8010    -5.3150 o          1 6NU      -0.893800
     13 O1           1.4770     2.5550    -3.4660 o          1 6NU      -0.893800
     14 C2           2.5360    -1.4330    -4.0460 cy         1 6NU      -0.096000
     15 C5           3.3700    -2.1510    -2.9730 cy         1 6NU      -0.059900
     16 C4           2.5370    -3.4060    -3.2770 cy         1 6NU      -0.054400
     17 C3           1.4250    -2.4580    -3.7600 cy         1 6NU      -0.059900
     18 C1           3.1230    -1.5440    -5.4540 c3         1 6NU       0.027900
     19 C13          5.5140    -0.0010     0.0050 cc         1 6NU      -0.196000
     20 C16          6.3890    -0.0010     1.1880 ca         1 6NU      -0.158100
     21 C17          6.1650    -0.0010     2.5640 ca         1 6NU      -0.032000
     22 C18          7.2670    -0.0020     3.4030 ca         1 6NU      -0.063400
     23 F1           7.1040    -0.0030     4.7440 f          1 6NU      -0.130900
     24 C19          8.5410    -0.0030     2.8520 ca         1 6NU       0.377200
     25 N5           8.7260    -0.0020     1.5490 nb         1 6NU      -0.564000
     26 C15          7.7080    -0.0010     0.6990 ca         1 6NU       0.201800
     27 N4           7.6320    -0.0010    -0.6750 na         1 6NU       0.264900
     28 C14          6.3310    -0.0070    -1.0790 cd         1 6NU      -0.217100
     29 H1           1.5350     0.0000     2.1370 h4         1 6NU      -0.019900
     30 H2           0.3990     0.0340    -2.4390 hn         1 6NU       0.304800
     31 H3           3.0570     0.5910    -3.5450 h1         1 6NU       0.072700
     32 H4           1.8280     0.5350    -5.7260 hc         1 6NU       0.022200
     33 H5           0.3620     0.0740    -4.8510 hc         1 6NU       0.022200
     34 H7           3.2030    -1.7630    -1.9750 hc         1 6NU       0.032450
     35 H8           4.4130    -2.2570    -3.2470 hc         1 6NU       0.032450
     36 H9           2.2650    -3.9600    -2.3870 hc         1 6NU       0.014700
     37 H10          2.9550    -4.0090    -4.0740 hc         1 6NU       0.014700
     38 H11          0.9290    -2.8080    -4.6570 hc         1 6NU       0.032450
     39 H12          0.7570    -2.1490    -2.9650 hc         1 6NU       0.032450
     40 H13          2.3190    -1.5940    -6.1780 hc         1 6NU       0.004367
     41 H14          3.7280    -2.4390    -5.5240 hc         1 6NU       0.004367
     42 H15          3.7390    -0.6760    -5.6580 hc         1 6NU       0.004367
     43 H16          5.1880     0.2570     2.9540 ha         1 6NU       0.147000
     44 H17          9.4020    -0.0040     3.5090 h4         1 6NU      -0.017900
     45 H18          8.4210    -0.0040    -1.2910 hn         1 6NU       0.115700
     46 H19          5.9990    -0.0150    -2.1100 h4         1 6NU       0.167000
@<TRIPOS>BOND
     1     1     2 1   
     2     2     3 ar  
     3     2     7 ar  
     4     3     4 ar  
     5     3    29 1   
     6     4     5 ar  
     7     5     6 ar  
     8     5    19 1   
     9     6     7 ar  
    10     7     8 1   
    11     8     9 1   
    12     8    30 1   
    13     9    10 1   
    14     9    14 1   
    15     9    31 1   
    16    10    11 1   
    17    10    32 1   
    18    10    33 1   
    19    11    12 1   
    20    11    13 1   
    21    14    15 1   
    22    14    17 1   
    23    14    18 1   
    24    15    16 1   
    25    15    34 1   
    26    15    35 1   
    27    16    17 1   
    28    16    36 1   
    29    16    37 1   
    30    17    38 1   
    31    17    39 1   
    32    18    40 1   
    33    18    41 1   
    34    18    42 1   
    35    19    20 1   
    36    19    28 2   
    37    20    21 ar  
    38    20    26 ar  
    39    21    22 ar  
    40    21    43 1   
    41    22    23 1   
    42    22    24 ar  
    43    24    25 ar  
    44    24    44 1   
    45    25    26 ar  
    46    26    27 1   
    47    27    28 1   
    48    27    45 1   
    49    28    46 1   
@<TRIPOS>SUBSTRUCTURE
     1 6NU         1 TEMP              0 ****  ****    0 ROOT
