@<TRIPOS>MOLECULE
6NX
   27    27     1     0     0
SMALL
bcc


@<TRIPOS>ATOM
      1 C1           0.0000     0.0000     0.0000 c3         1 6NX       0.104300
      2 N2           1.4640     0.0000     0.0000 ns         1 6NX      -0.223900
      3 C3           2.1380     0.0000     1.1680 c          1 6NX       0.579100
      4 O4           1.5300     0.0000     2.2200 o          1 6NX      -0.704100
      5 N5           3.4860    -0.0000     1.1680 ns         1 6NX      -0.217900
      6 C6           4.2180     0.0000     2.4380 c3         1 6NX       0.034700
      7 C7           5.6050    -0.6090     2.2260 c3         1 6NX      -0.040900
      8 C8           6.3690    -0.6100     3.5510 c3         1 6NX      -0.017400
      9 C9           6.5160     0.8270     4.0550 c3         1 6NX      -0.028400
     10 C10          5.1280     1.4370     4.2660 c3         1 6NX      -0.017400
     11 C11          4.3640     1.4370     2.9420 c3         1 6NX      -0.040900
     12 H11C        -0.3610     0.8750     0.5270 h1         1 6NX       0.006367
     13 H12C        -0.3610    -0.8940     0.4940 h1         1 6NX       0.006367
     14 H13C        -0.3610     0.0190    -1.0210 h1         1 6NX       0.006367
     15 H2           1.9650    -0.0330    -0.8660 hn         1 6NX       0.161500
     16 H5           3.9860    -0.0370     0.3020 hn         1 6NX       0.164500
     17 H6           3.6770    -0.5850     3.1720 h1         1 6NX       0.060700
     18 H71C         6.1490    -0.0210     1.4970 hc         1 6NX       0.019450
     19 H72C         5.5000    -1.6270     1.8710 hc         1 6NX       0.019450
     20 H111         4.9090     2.0210     2.2110 hc         1 6NX       0.019450
     21 H112         3.3810     1.8660     3.0940 hc         1 6NX       0.019450
     22 H81C         5.8220    -1.1940     4.2820 hc         1 6NX       0.015950
     23 H82C         7.3520    -1.0400     3.3990 hc         1 6NX       0.015950
     24 H91C         7.0550     0.8260     4.9950 hc         1 6NX       0.013200
     25 H92C         7.0580     1.4120     3.3220 hc         1 6NX       0.013200
     26 H101         5.2330     2.4550     4.6210 hc         1 6NX       0.015950
     27 H102         4.5840     0.8490     4.9960 hc         1 6NX       0.015950
@<TRIPOS>BOND
     1     1     2 1   
     2     1    12 1   
     3     1    13 1   
     4     1    14 1   
     5     2     3 1   
     6     2    15 1   
     7     3     4 2   
     8     3     5 1   
     9     5     6 1   
    10     5    16 1   
    11     6     7 1   
    12     6    11 1   
    13     6    17 1   
    14     7     8 1   
    15     7    18 1   
    16     7    19 1   
    17     8     9 1   
    18     8    22 1   
    19     8    23 1   
    20     9    10 1   
    21     9    24 1   
    22     9    25 1   
    23    10    11 1   
    24    10    26 1   
    25    10    27 1   
    26    11    20 1   
    27    11    21 1   
@<TRIPOS>SUBSTRUCTURE
     1 6NX         1 TEMP              0 ****  ****    0 ROOT
