@<TRIPOS>MOLECULE
molecule
   27    27     1     0     0
SMALL
bcc


@<TRIPOS>ATOM
      1 C1           0.0000     0.0000     0.0000 c3         1 6NX       0.122300
      2 N2           1.4640     0.0000     0.0000 ns         1 6NX      -0.609900
      3 C3           2.1380     0.0000     1.1680 c          1 6NX       0.781100
      4 O4           1.5300     0.0000     2.2200 o          1 6NX      -0.659100
      5 N5           3.4860    -0.0000     1.1680 ns         1 6NX      -0.602900
      6 C6           4.2180     0.0000     2.4380 c3         1 6NX       0.135700
      7 C7           5.6050    -0.6090     2.2260 c3         1 6NX      -0.094400
      8 C8           6.3690    -0.6100     3.5510 c3         1 6NX      -0.076900
      9 C9           6.5160     0.8270     4.0550 c3         1 6NX      -0.083400
     10 C10          5.1280     1.4370     4.2660 c3         1 6NX      -0.076900
     11 C11          4.3640     1.4370     2.9420 c3         1 6NX      -0.094400
     12 H11C        -0.3610     0.8750     0.5270 h1         1 6NX       0.039700
     13 H12C        -0.3610    -0.8940     0.4940 h1         1 6NX       0.039700
     14 H13C        -0.3610     0.0190    -1.0210 h1         1 6NX       0.039700
     15 H2           1.9650    -0.0330    -0.8660 hn         1 6NX       0.304500
     16 H5           3.9860    -0.0370     0.3020 hn         1 6NX       0.303500
     17 H6           3.6770    -0.5850     3.1720 h1         1 6NX       0.081700
     18 H71C         6.1490    -0.0210     1.4970 hc         1 6NX       0.046950
     19 H72C         5.5000    -1.6270     1.8710 hc         1 6NX       0.046950
     20 H111         4.9090     2.0210     2.2110 hc         1 6NX       0.046950
     21 H112         3.3810     1.8660     3.0940 hc         1 6NX       0.046950
     22 H81C         5.8220    -1.1940     4.2820 hc         1 6NX       0.044700
     23 H82C         7.3520    -1.0400     3.3990 hc         1 6NX       0.044700
     24 H91C         7.0550     0.8260     4.9950 hc         1 6NX       0.041200
     25 H92C         7.0580     1.4120     3.3220 hc         1 6NX       0.041200
     26 H101         5.2330     2.4550     4.6210 hc         1 6NX       0.044700
     27 H102         4.5840     0.8490     4.9960 hc         1 6NX       0.044700
@<TRIPOS>BOND
     1     1     2 1
     2     2     3 1
     3     3     4 2
     4     3     5 1
     5     5     6 1
     6     6     7 1
     7     6    11 1
     8     7     8 1
     9     8     9 1
    10     9    10 1
    11    10    11 1
    12     1    12 1
    13     1    13 1
    14     1    14 1
    15     2    15 1
    16     5    16 1
    17     6    17 1
    18     7    18 1
    19     7    19 1
    20    11    20 1
    21    11    21 1
    22     8    22 1
    23     8    23 1
    24     9    24 1
    25     9    25 1
    26    10    26 1
    27    10    27 1
@<TRIPOS>SUBSTRUCTURE
     1 6NX         1 TEMP              0 ****  ****    0 ROOT
