@<TRIPOS>MOLECULE
6NY
   43    44     1     0     0
SMALL
bcc


@<TRIPOS>ATOM
      1 O01          0.0000     0.0000     0.0000 o          1 6NY      -0.638100
      2 C02          1.2150     0.0000     0.0000 c          1 6NY       0.606700
      3 N03          1.8900     0.0000     1.1670 n          1 6NY      -0.158800
      4 C04          3.3510    -0.1050     1.1690 c3         1 6NY       0.080300
      5 C05          1.1620     0.1050     2.4330 c3         1 6NY       0.080300
      6 C06          1.9540    -0.0070    -1.2810 ca         1 6NY      -0.137600
      7 C07          1.4170    -0.6510    -2.3950 ca         1 6NY      -0.067000
      8 C08          2.1150    -0.6530    -3.5910 ca         1 6NY       0.106100
      9 O09          1.5950    -1.2790    -4.6800 os         1 6NY      -0.236200
     10 C10          0.5820    -0.6640    -5.3480 ca         1 6NY       0.053100
     11 C11          0.0870     0.5470    -4.8950 ca         1 6NY      -0.141000
     12 C12         -0.9430     1.1710    -5.5750 ca         1 6NY      -0.135300
     13 C13         -1.4790     2.4900    -5.0790 c3         1 6NY       0.255400
     14 O14         -1.8550     3.3000    -6.1950 oh         1 6NY      -0.587800
     15 C15         -2.7010     2.2430    -4.1930 c3         1 6NY      -0.023100
     16 C16         -1.4810     0.5900    -6.7070 ca         1 6NY      -0.056000
     17 C17         -0.9930    -0.6200    -7.1650 ca         1 6NY      -0.145000
     18 C18          0.0440    -1.2490    -6.4920 ca         1 6NY       0.051600
     19 N19          0.5400    -2.4730    -6.9540 nu         1 6NY      -0.214100
     20 O20         -0.0170    -3.0720    -8.1110 oh         1 6NY      -0.426300
     21 C21          3.3450    -0.0160    -3.6800 ca         1 6NY      -0.099000
     22 C22          3.8790     0.6230    -2.5750 ca         1 6NY      -0.095000
     23 C23          3.1890     0.6370    -1.3800 ca         1 6NY      -0.120000
     24 H041         3.6790    -0.5590     2.0960 h1         1 6NY       0.013367
     25 H042         3.6690    -0.7170     0.3340 h1         1 6NY       0.013367
     26 H043         3.7840     0.8840     1.0780 h1         1 6NY       0.013367
     27 H051         0.4880     0.9520     2.3930 h1         1 6NY       0.013367
     28 H053         1.8660     0.2420     3.2450 h1         1 6NY       0.013367
     29 H052         0.5920    -0.8020     2.5990 h1         1 6NY       0.013367
     30 H071         0.5010    -1.2230    -2.3010 ha         1 6NY       0.137000
     31 H111         0.5260     1.0200    -4.0240 ha         1 6NY       0.125000
     32 H131        -0.7140     2.9980    -4.5050 h1         1 6NY      -0.003300
     33 H141        -1.3830     4.1150    -6.1650 ho         1 6NY       0.386000
     34 H151        -3.5870     2.6270    -4.6840 hc         1 6NY       0.014033
     35 H152        -2.8160     1.1790    -4.0230 hc         1 6NY       0.014033
     36 H153        -2.5670     2.7480    -3.2440 hc         1 6NY       0.014033
     37 H161        -2.2890     1.0810    -7.2340 ha         1 6NY       0.118000
     38 H171        -1.4150    -1.0730    -8.0540 ha         1 6NY       0.125000
     39 H191         1.2850    -2.9270    -6.4650 hn         1 6NY       0.287800
     40 H201         0.4410    -3.8740    -8.3000 ho         1 6NY       0.397000
     41 H211         3.8900    -0.0210    -4.6160 ha         1 6NY       0.116000
     42 H221         4.8380     1.1210    -2.6500 ha         1 6NY       0.107000
     43 H231         3.6100     1.1380    -0.5170 ha         1 6NY       0.128000
@<TRIPOS>BOND
     1     1     2 2   
     2     2     3 1   
     3     2     6 1   
     4     3     4 1   
     5     3     5 1   
     6     4    24 1   
     7     4    25 1   
     8     4    26 1   
     9     5    27 1   
    10     5    28 1   
    11     5    29 1   
    12     6     7 ar  
    13     6    23 ar  
    14     7     8 ar  
    15     7    30 1   
    16     8     9 1   
    17     8    21 ar  
    18     9    10 1   
    19    10    11 ar  
    20    10    18 ar  
    21    11    12 ar  
    22    11    31 1   
    23    12    13 1   
    24    12    16 ar  
    25    13    14 1   
    26    13    15 1   
    27    13    32 1   
    28    14    33 1   
    29    15    34 1   
    30    15    35 1   
    31    15    36 1   
    32    16    17 ar  
    33    16    37 1   
    34    17    18 ar  
    35    17    38 1   
    36    18    19 1   
    37    19    20 1   
    38    19    39 1   
    39    20    40 1   
    40    21    22 ar  
    41    21    41 1   
    42    22    23 ar  
    43    22    42 1   
    44    23    43 1   
@<TRIPOS>SUBSTRUCTURE
     1 6NY         1 TEMP              0 ****  ****    0 ROOT
