@<TRIPOS>MOLECULE
molecule
   43    44     1     0     0
SMALL
bcc


@<TRIPOS>ATOM
      1 O01          0.0000     0.0000     0.0000 o          1 6NY      -0.597100
      2 C02          1.2150     0.0000     0.0000 c          1 6NY       0.674700
      3 N03          1.8900     0.0000     1.1670 n          1 6NY      -0.493800
      4 C04          3.3510    -0.1050     1.1690 c3         1 6NY       0.097300
      5 C05          1.1620     0.1050     2.4330 c3         1 6NY       0.097300
      6 C06          1.9540    -0.0070    -1.2810 ca         1 6NY      -0.135600
      7 C07          1.4170    -0.6510    -2.3950 ca         1 6NY      -0.092000
      8 C08          2.1150    -0.6530    -3.5910 ca         1 6NY       0.100100
      9 O09          1.5950    -1.2790    -4.6800 os         1 6NY      -0.267200
     10 C10          0.5820    -0.6640    -5.3480 ca         1 6NY       0.046100
     11 C11          0.0870     0.5470    -4.8950 ca         1 6NY      -0.154000
     12 C12         -0.9430     1.1710    -5.5750 ca         1 6NY      -0.123300
     13 C13         -1.4790     2.4900    -5.0790 c3         1 6NY       0.198400
     14 O14         -1.8550     3.3000    -6.1950 oh         1 6NY      -0.606800
     15 C15         -2.7010     2.2430    -4.1930 c3         1 6NY      -0.105100
     16 C16         -1.4810     0.5900    -6.7070 ca         1 6NY      -0.084000
     17 C17         -0.9930    -0.6200    -7.1650 ca         1 6NY      -0.167000
     18 C18          0.0440    -1.2490    -6.4920 ca         1 6NY       0.216600
     19 N19          0.5400    -2.4730    -6.9540 nu         1 6NY      -0.640100
     20 O20         -0.0170    -3.0720    -8.1110 oh         1 6NY      -0.343300
     21 C21          3.3450    -0.0160    -3.6800 ca         1 6NY      -0.117000
     22 C22          3.8790     0.6230    -2.5750 ca         1 6NY      -0.131000
     23 C23          3.1890     0.6370    -1.3800 ca         1 6NY      -0.123000
     24 H041         3.6790    -0.5590     2.0960 h1         1 6NY       0.043367
     25 H042         3.6690    -0.7170     0.3340 h1         1 6NY       0.043367
     26 H043         3.7840     0.8840     1.0780 h1         1 6NY       0.043367
     27 H051         0.4880     0.9520     2.3930 h1         1 6NY       0.043367
     28 H053         1.8660     0.2420     3.2450 h1         1 6NY       0.043367
     29 H052         0.5920    -0.8020     2.5990 h1         1 6NY       0.043367
     30 H071         0.5010    -1.2230    -2.3010 ha         1 6NY       0.167000
     31 H111         0.5260     1.0200    -4.0240 ha         1 6NY       0.145000
     32 H131        -0.7140     2.9980    -4.5050 h1         1 6NY       0.032700
     33 H141        -1.3830     4.1150    -6.1650 ho         1 6NY       0.400000
     34 H151        -3.5870     2.6270    -4.6840 hc         1 6NY       0.047033
     35 H152        -2.8160     1.1790    -4.0230 hc         1 6NY       0.047033
     36 H153        -2.5670     2.7480    -3.2440 hc         1 6NY       0.047033
     37 H161        -2.2890     1.0810    -7.2340 ha         1 6NY       0.149000
     38 H171        -1.4150    -1.0730    -8.0540 ha         1 6NY       0.154000
     39 H191         1.2850    -2.9270    -6.4650 hn         1 6NY       0.463800
     40 H201         0.4410    -3.8740    -8.3000 ho         1 6NY       0.404000
     41 H211         3.8900    -0.0210    -4.6160 ha         1 6NY       0.147000
     42 H221         4.8380     1.1210    -2.6500 ha         1 6NY       0.138000
     43 H231         3.6100     1.1380    -0.5170 ha         1 6NY       0.146000
@<TRIPOS>BOND
     1    14    13 1
     2    13    15 1
     3    13    12 1
     4    16    12 ar
     5    16    17 ar
     6    12    11 ar
     7    17    18 ar
     8    11    10 ar
     9    18    10 ar
    10    18    19 1
    11    10     9 1
    12    19    20 1
    13     9     8 1
    14    21     8 ar
    15    21    22 ar
    16     8     7 ar
    17    22    23 ar
    18     4     3 1
    19     7     6 ar
    20    23     6 ar
    21     6     2 1
    22     3     2 1
    23     3     5 1
    24     2     1 2
    25     4    24 1
    26     4    25 1
    27     4    26 1
    28     5    27 1
    29     5    28 1
    30     5    29 1
    31     7    30 1
    32    11    31 1
    33    13    32 1
    34    14    33 1
    35    15    34 1
    36    15    35 1
    37    15    36 1
    38    16    37 1
    39    17    38 1
    40    19    39 1
    41    20    40 1
    42    21    41 1
    43    22    42 1
    44    23    43 1
@<TRIPOS>SUBSTRUCTURE
     1 6NY         1 TEMP              0 ****  ****    0 ROOT
