@<TRIPOS>MOLECULE
6NZ
   37    38     1     0     0
SMALL
bcc


@<TRIPOS>ATOM
      1 C1           0.0000     0.0000     0.0000 c3         1 6NZ       0.006900
      2 C2           1.5300     0.0000     0.0000 c3         1 6NZ      -0.027400
      3 C3           2.0390     0.0000     1.4420 c3         1 6NZ       0.048800
      4 C4           3.5450    -0.0000     1.4430 cc         1 6NZ      -0.212400
      5 C5           4.2360     1.1720     1.5520 cd         1 6NZ      -0.024000
      6 C6           5.6370     1.1450     1.5500 cd         1 6NZ      -0.178200
      7 C7           6.2900    -0.0350     1.4430 cc         1 6NZ      -0.156400
      8 N8           5.6020    -1.2010     1.3340 ns         1 6NZ       0.091900
      9 C10          4.2560    -1.2090     1.3390 c          1 6NZ       0.578700
     10 O11          3.6510    -2.2650     1.2460 o          1 6NZ      -0.706500
     11 C12          6.4160     2.4290     1.6680 c3         1 6NZ       0.023500
     12 C13          6.0630     3.3500     0.4970 c3         1 6NZ      -0.025400
     13 C14          6.8540     4.6540     0.6180 c3         1 6NZ      -0.023400
     14 C15          6.4990     5.3460     1.9340 c3         1 6NZ      -0.025400
     15 C16          6.8520     4.4260     3.1050 c3         1 6NZ      -0.023400
     16 C17          6.0610     3.1220     2.9860 c3         1 6NZ      -0.025400
     17 HN8          6.1010    -2.0650     1.2580 hn         1 6NZ       0.167500
     18 H1          -0.3610    -0.8620     0.5480 hc         1 6NZ       0.000033
     19 H1A         -0.3610     0.9060     0.4720 hc         1 6NZ       0.000033
     20 H1B         -0.3610    -0.0440    -1.0200 hc         1 6NZ       0.000033
     21 H2           1.8910    -0.8850    -0.5110 hc         1 6NZ       0.016700
     22 H2A          1.8910     0.8850    -0.5110 hc         1 6NZ       0.016700
     23 H3           1.6770    -0.8840     1.9530 hc         1 6NZ       0.024200
     24 H3A          1.6770     0.8850     1.9530 hc         1 6NZ       0.024200
     25 H5           3.7060     2.1130     1.6370 ha         1 6NZ       0.117000
     26 H7           7.3730    -0.0510     1.4390 h4         1 6NZ       0.127000
     27 H12          7.4780     2.2160     1.6490 hc         1 6NZ       0.027700
     28 H13          6.3170     2.8600    -0.4350 hc         1 6NZ       0.018200
     29 H13A         5.0020     3.5690     0.5180 hc         1 6NZ       0.018200
     30 H14          6.6010     5.3050    -0.2100 hc         1 6NZ       0.013700
     31 H14A         7.9140     4.4340     0.6010 hc         1 6NZ       0.013700
     32 H15          5.4380     5.5620     1.9530 hc         1 6NZ       0.013700
     33 H15A         7.0620     6.2680     2.0190 hc         1 6NZ       0.013700
     34 H16          6.5980     4.9160     4.0370 hc         1 6NZ       0.013700
     35 H16A         7.9120     4.2060     3.0840 hc         1 6NZ       0.013700
     36 H17          6.3140     2.4700     3.8140 hc         1 6NZ       0.018200
     37 H17A         5.0000     3.3410     3.0030 hc         1 6NZ       0.018200
@<TRIPOS>BOND
     1     1     2 1   
     2     1    18 1   
     3     1    19 1   
     4     1    20 1   
     5     2     3 1   
     6     2    21 1   
     7     2    22 1   
     8     3     4 1   
     9     3    23 1   
    10     3    24 1   
    11     4     5 2   
    12     4     9 1   
    13     5     6 1   
    14     5    25 1   
    15     6     7 2   
    16     6    11 1   
    17     7     8 1   
    18     7    26 1   
    19     8     9 1   
    20     8    17 1   
    21     9    10 2   
    22    11    12 1   
    23    11    16 1   
    24    11    27 1   
    25    12    13 1   
    26    12    28 1   
    27    12    29 1   
    28    13    14 1   
    29    13    30 1   
    30    13    31 1   
    31    14    15 1   
    32    14    32 1   
    33    14    33 1   
    34    15    16 1   
    35    15    34 1   
    36    15    35 1   
    37    16    36 1   
    38    16    37 1   
@<TRIPOS>SUBSTRUCTURE
     1 6NZ         1 TEMP              0 ****  ****    0 ROOT
