@<TRIPOS>MOLECULE
6O2
   50    53     1     0     0
SMALL
bcc


@<TRIPOS>ATOM
      1 C8           0.0000     0.0000     0.0000 ca         1 6O2       0.075000
      2 C5           4.1760    -0.6510     0.2050 ca         1 6O2       0.587200
      3 C6           2.0820     0.0000     1.2040 ca         1 6O2      -0.029400
      4 N1           5.5010    -1.9430    -1.7830 nb         1 6O2      -0.679000
      5 C2           8.6510    -1.4880    -1.6050 c3         1 6O2       0.170800
      6 N3           3.4800    -0.0010     1.2100 nu         1 6O2      -0.254300
      7 C4           4.1910    -1.9910    -1.6750 ca         1 6O2       0.706900
      8 C13         -1.2900    -0.0050    -2.2650 c1         1 6O2      -0.095500
      9 C12         -0.7180    -0.0010    -1.2390 cg         1 6O2      -0.140000
     10 C7           1.3940     0.0000     0.0000 ca         1 6O2      -0.081000
     11 C9          -0.6940     0.0060     1.2120 ca         1 6O2      -0.092000
     12 C10         -0.0010     0.0050     2.4050 ca         1 6O2      -0.080000
     13 C11          1.3820    -0.0010     2.4050 ca         1 6O2      -0.125000
     14 N2           3.5350    -1.3680    -0.7130 nb         1 6O2      -0.715000
     15 C3           6.2270    -1.2430    -0.9170 ca         1 6O2       0.286800
     16 C14          5.5760    -0.5650     0.1290 ca         1 6O2      -0.248200
     17 N4           6.5340     0.0510     0.8630 nc         1 6O2      -0.471100
     18 C15          7.7020    -0.1990     0.3460 cd         1 6O2       0.222700
     19 N            7.5660    -0.9930    -0.7540 na         1 6O2       0.188000
     20 O1           9.9020    -1.4750    -0.8840 os         1 6O2      -0.419600
     21 C16          8.8720    -0.5370    -2.8010 c3         1 6O2       0.130100
     22 O2           8.2150    -1.0380    -3.9680 oh         1 6O2      -0.528800
     23 C17         10.4040    -0.5360    -3.0020 c3         1 6O2       0.133100
     24 O3          10.7400    -1.0340    -4.2990 oh         1 6O2      -0.537800
     25 C1          10.9280    -1.4890    -1.9000 c3         1 6O2       0.154100
     26 C           12.2500    -0.9710    -1.3320 c3         1 6O2       0.248400
     27 O           12.7730    -1.9210    -0.4020 os         1 6O2      -0.425500
     28 S           14.0940    -1.5070     0.2290 s6         1 6O2       1.277400
     29 O4          14.5630    -2.6340     0.9570 o          1 6O2      -0.504800
     30 O5          14.8490    -0.8750    -0.7960 o          1 6O2      -0.504800
     31 N5          13.7570    -0.3350     1.3500 nz         1 6O2      -0.171500
     32 H1           8.4330    -2.4890    -1.9580 h2         1 6O2       0.081700
     33 H2           3.9780     0.4720     1.9380 hn         1 6O2       0.297800
     34 H3           3.6290    -2.5630    -2.4020 h5         1 6O2       0.005100
     35 H4          -1.8710    -0.0990    -3.1740 ha         1 6O2       0.141500
     36 H5           1.9350     0.1030    -0.9330 ha         1 6O2       0.134000
     37 H6          -1.7770     0.0110     1.2150 ha         1 6O2       0.114000
     38 H7          -0.5410     0.0070     3.3430 ha         1 6O2       0.108000
     39 H8           1.9220    -0.0010     3.3440 ha         1 6O2       0.106000
     40 H9           8.6450     0.1690     0.7330 h5         1 6O2       0.016800
     41 H10          8.5230     0.4590    -2.5600 h1         1 6O2       0.025700
     42 H11          7.9930    -0.3190    -4.5360 ho         1 6O2       0.404000
     43 H12         10.8020     0.4610    -2.8570 h1         1 6O2       0.005700
     44 H13         11.1970    -0.3660    -4.7840 ho         1 6O2       0.398000
     45 H14         11.0480    -2.4900    -2.2970 h1         1 6O2       0.075700
     46 H15         12.0810    -0.0270    -0.8280 h1         1 6O2       0.020700
     47 H16         12.9580    -0.8280    -2.1390 h1         1 6O2       0.020700
     48 H17         14.5260    -0.2470     1.9830 hn         1 6O2       0.322800
     49 H18         12.9330    -0.5880     1.8590 hn         1 6O2       0.322800
     50 H53         13.6060     0.5380     0.8840 hn         1 6O2       0.322800
@<TRIPOS>BOND
     1     1     9 1   
     2     1    10 ar  
     3     1    11 ar  
     4     2     6 1   
     5     2    14 ar  
     6     2    16 ar  
     7     3     6 1   
     8     3    10 ar  
     9     3    13 ar  
    10     4     7 ar  
    11     4    15 ar  
    12     5    19 1   
    13     5    20 1   
    14     5    21 1   
    15     5    32 1   
    16     6    33 1   
    17     7    14 ar  
    18     7    34 1   
    19     8     9 3   
    20     8    35 1   
    21    10    36 1   
    22    11    12 ar  
    23    11    37 1   
    24    12    13 ar  
    25    12    38 1   
    26    13    39 1   
    27    15    16 ar  
    28    15    19 1   
    29    16    17 1   
    30    17    18 2   
    31    18    19 1   
    32    18    40 1   
    33    20    25 1   
    34    21    22 1   
    35    21    23 1   
    36    21    41 1   
    37    22    42 1   
    38    23    24 1   
    39    23    25 1   
    40    23    43 1   
    41    24    44 1   
    42    25    26 1   
    43    25    45 1   
    44    26    27 1   
    45    26    46 1   
    46    26    47 1   
    47    27    28 1   
    48    28    29 2   
    49    28    30 2   
    50    28    31 1   
    51    31    48 1   
    52    31    49 1   
    53    31    50 1   
@<TRIPOS>SUBSTRUCTURE
     1 6O2         1 TEMP              0 ****  ****    0 ROOT
