@<TRIPOS>MOLECULE
molecule
   32    34     1     0     0
SMALL
bcc


@<TRIPOS>ATOM
      1 OAS          0.0000     0.0000     0.0000 o          1 6O3      -0.888500
      2 PAR          1.4810     0.0000     0.0000 p5         1 6O3       1.001700
      3 OAT          2.0170     0.0000     1.5180 o          1 6O3      -0.888500
      4 OAU          2.0170    -1.3140    -0.7580 o          1 6O3      -0.888500
      5 CAQ          2.0880     1.4890    -0.8590 c3         1 6O3      -0.176400
      6 CAC          1.4880     2.7160    -0.2240 cc         1 6O3       0.074600
      7 C5           2.1340     3.4350     0.8540 ca         1 6O3      -0.274400
      8 C6           3.3600     3.1920     1.5100 ca         1 6O3       0.539200
      9 N1           3.7390     4.0010     2.4780 nb         1 6O3      -0.783000
     10 C2           2.9970     5.0320     2.8430 ca         1 6O3       0.646900
     11 N3           1.8490     5.3050     2.2670 nb         1 6O3      -0.751000
     12 C4           1.3800     4.5410     1.2760 ca         1 6O3       0.505600
     13 SAE         -0.0950     4.6500     0.3280 ss         1 6O3      -0.268900
     14 CAD          0.3210     3.2290    -0.6130 cd         1 6O3      -0.044600
     15 CAJ         -0.5160     2.6720    -1.6960 ca         1 6O3       0.063200
     16 CAK         -1.8570     2.3650    -1.4590 ca         1 6O3      -0.074000
     17 CAL         -2.6330     1.8450    -2.4740 ca         1 6O3      -0.139500
     18 CAM         -2.0850     1.6280    -3.7250 ca         1 6O3      -0.111300
     19 CAP         -2.9380     1.0600    -4.8290 c3         1 6O3      -0.036800
     20 CAN         -0.7570     1.9310    -3.9680 ca         1 6O3      -0.139500
     21 CAO          0.0290     2.4550    -2.9620 ca         1 6O3      -0.074000
     22 H3           3.1670     1.5340    -0.7820 hc         1 6O3       0.046200
     23 H4           1.8010     1.4450    -1.9030 hc         1 6O3       0.046200
     24 H5           3.9800     2.3510     1.2230 h4         1 6O3       0.063100
     25 H6           3.3460     5.6730     3.6440 h5         1 6O3       0.024100
     26 H7          -2.3010     2.5860    -0.4960 ha         1 6O3       0.123000
     27 H8          -3.6730     1.6060    -2.2910 ha         1 6O3       0.105500
     28 H9          -3.9710     1.3480    -4.6720 hc         1 6O3       0.023700
     29 H10         -2.8600    -0.0200    -4.8270 hc         1 6O3       0.023700
     30 H11         -2.5970     1.4440    -5.7830 hc         1 6O3       0.023700
     31 H12         -0.3330     1.7560    -4.9490 ha         1 6O3       0.105500
     32 H13          0.7500     3.1000    -3.4510 ha         1 6O3       0.123000
@<TRIPOS>BOND
     1     1     2 1
     2     3     2 1
     3     4     2 1
     4     2     5 1
     5     5     6 1
     6    20    21 ar
     7    20    18 ar
     8    21    15 ar
     9    19    18 1
    10     8     9 ar
    11     8     7 ar
    12    18    17 ar
    13     6     7 1
    14     6    14 2
    15     9    10 ar
    16     7    12 ar
    17    15    14 1
    18    15    16 ar
    19    14    13 1
    20    17    16 ar
    21    10    11 ar
    22    12    11 ar
    23    12    13 1
    24     5    22 1
    25     5    23 1
    26     8    24 1
    27    10    25 1
    28    16    26 1
    29    17    27 1
    30    19    28 1
    31    19    29 1
    32    19    30 1
    33    20    31 1
    34    21    32 1
@<TRIPOS>SUBSTRUCTURE
     1 6O3         1 TEMP              0 ****  ****    0 ROOT
