@<TRIPOS>MOLECULE
6O5
   17    17     1     0     0
SMALL
bcc


@<TRIPOS>ATOM
      1 CAE         0.0580   -0.3440    0.0810 cc        1 6O5     -0.302300
      2 CAC         1.4660   -0.0270    0.0090 cc        1 6O5     -0.261300
      3 CAD         1.8470    0.3720    1.2730 cd        1 6O5      0.192600
      4 OAH         0.7560    0.3240    2.1410 os        1 6O5     -0.376800
      5 CAJ        -0.3420   -0.1200    1.3880 cd        1 6O5      0.306000
      6 CAG        -1.6230   -0.2240    2.1060 c3        1 6O5     -0.119700
      7 CAF        -2.4430   -1.4170    1.6740 c3        1 6O5     -0.194400
      8 CAI        -3.8990   -1.2970    2.1690 c         1 6O5      0.909600
      9 OAB        -4.5110   -2.3690    2.4340 o         1 6O5     -0.846800
     10 OAA        -4.4100   -0.1440    2.2660 o         1 6O5     -0.846800
     11 H1         -0.5610   -0.6940   -0.7390 ha        1 6O5      0.160000
     12 H2          2.0860   -0.0970   -0.8780 ha        1 6O5      0.140000
     13 H3          2.7710    0.7030    1.7320 h4        1 6O5      0.032100
     14 H4         -1.4340   -0.2720    3.2120 hc        1 6O5      0.076200
     15 H5         -2.2280    0.7100    1.9160 hc        1 6O5      0.076200
     16 H6         -1.9970   -2.3640    2.0670 hc        1 6O5      0.028200
     17 H7         -2.4700   -1.4850    0.5570 hc        1 6O5      0.028200
@<TRIPOS>BOND
     1    1    2 1
     2    1    5 2
     3    1   11 1
     4    2    3 2
     5    2   12 1
     6    3    4 1
     7    3   13 1
     8    4    5 1
     9    5    6 1
    10    6    7 1
    11    6   14 1
    12    6   15 1
    13    7    8 1
    14    7   16 1
    15    7   17 1
    16    8    9 1
    17    8   10 1
@<TRIPOS>SUBSTRUCTURE
     1 6O5         1 TEMP              0 ****  ****    0 ROOT
