@<TRIPOS>MOLECULE
molecule
   67    66     1     0     0
SMALL
bcc


@<TRIPOS>ATOM
      1 C01          0.0000     0.0000     0.0000 c3         1 6O8      -0.090100
      2 C02          1.5300     0.0000     0.0000 c3         1 6O8      -0.086400
      3 C03          2.0400     0.0000     1.4430 c3         1 6O8      -0.074400
      4 C04          3.5700     0.0000     1.4430 c3         1 6O8      -0.126400
      5 C05          4.0710    -0.0000     2.8650 c          1 6O8       0.626100
      6 O06          3.2860    -0.0010     3.7830 o          1 6O8      -0.562000
      7 O07          5.3910    -0.0000     3.1110 os         1 6O8      -0.379900
      8 C08          5.8030    -0.0000     4.5030 c3         1 6O8       0.140400
      9 C09          7.3310     0.0000     4.5830 c3         1 6O8       0.140100
     10 C10          7.8830    -1.1820     3.7840 c3         1 6O8       0.231400
     11 O11          7.3830    -1.1270     2.4460 os         1 6O8      -0.588200
     12 P12          7.7600    -2.2180     1.3240 p5         1 6O8       1.328800
     13 O13          9.3360    -2.1330     1.0010 o          1 6O8      -0.798000
     14 O14          7.4310    -3.5730     1.8220 o          1 6O8      -0.798000
     15 O15          6.9210    -1.9210    -0.0170 os         1 6O8      -0.612200
     16 C16          6.9560    -2.7750    -1.1620 c3         1 6O8       0.200400
     17 C17          6.0480    -2.2030    -2.2530 c3         1 6O8       0.094800
     18 N18          6.6060    -0.9320    -2.7380 n4         1 6O8      -0.568800
     19 C19          7.9950    -1.1400    -3.1650 c3         1 6O8       0.097433
     20 C20          5.8090    -0.4510    -3.8740 c3         1 6O8       0.097433
     21 C21          6.5690     0.0610    -1.6570 c3         1 6O8       0.097433
     22 O22          7.8440     1.2410     4.0310 os         1 6O8      -0.401900
     23 C23          8.0020     2.2660     4.8830 c          1 6O8       0.626100
     24 O24          7.7210     2.1320     6.0500 o          1 6O8      -0.563000
     25 C25          8.5310     3.5860     4.3810 c3         1 6O8      -0.126400
     26 C26          8.6150     4.5760     5.5440 c3         1 6O8      -0.073400
     27 C27          9.1520     5.9160     5.0350 c3         1 6O8      -0.083400
     28 C28          9.2350     6.9070     6.1990 c3         1 6O8      -0.082400
     29 C29          9.7720     8.2460     5.6910 c3         1 6O8      -0.092100
     30 H011        -0.3610    -0.9030     0.4770 hc         1 6O8       0.036367
     31 H012        -0.3610     0.8650     0.5440 hc         1 6O8       0.036367
     32 H1          -0.3610     0.0380    -1.0210 hc         1 6O8       0.036367
     33 H022         1.8910     0.8850    -0.5110 hc         1 6O8       0.027700
     34 H021         1.8910    -0.8850    -0.5110 hc         1 6O8       0.027700
     35 H031         1.6790    -0.8850     1.9540 hc         1 6O8       0.064200
     36 H032         1.6790     0.8850     1.9540 hc         1 6O8       0.064200
     37 H041         3.9310    -0.8840     0.9330 hc         1 6O8       0.060200
     38 H042         3.9310     0.8850     0.9330 hc         1 6O8       0.060200
     39 H081         5.4160    -0.8850     4.9940 h1         1 6O8       0.057700
     40 H082         5.4150     0.8840     4.9940 h1         1 6O8       0.057700
     41 H091         7.6380    -0.0890     5.6180 h1         1 6O8       0.085700
     42 H102         7.5720    -2.1100     4.2480 h1         1 6O8       0.052200
     43 H101         8.9650    -1.1320     3.7670 h1         1 6O8       0.052200
     44 H162         7.9710    -2.8400    -1.5340 h1         1 6O8       0.070700
     45 H161         6.6090    -3.7640    -0.8860 h1         1 6O8       0.070700
     46 H171         5.0590    -2.0310    -1.8460 hx         1 6O8       0.091700
     47 H172         5.9830    -2.9060    -3.0750 hx         1 6O8       0.091700
     48 H193         8.6460    -1.1260    -2.3000 hx         1 6O8       0.095700
     49 H191         8.0800    -2.0980    -3.6650 hx         1 6O8       0.095700
     50 H192         8.2850    -0.3500    -3.8480 hx         1 6O8       0.095700
     51 H202         4.7700    -0.3710    -3.5780 hx         1 6O8       0.095700
     52 H203         5.8980    -1.1480    -4.6980 hx         1 6O8       0.095700
     53 H201         6.1730     0.5220    -4.1830 hx         1 6O8       0.095700
     54 H213         7.4730    -0.0150    -1.0650 hx         1 6O8       0.095700
     55 H212         5.7070    -0.1230    -1.0270 hx         1 6O8       0.095700
     56 H211         6.4990     1.0550    -2.0830 hx         1 6O8       0.095700
     57 H252         7.8650     3.9760     3.6210 hc         1 6O8       0.069700
     58 H251         9.5180     3.4420     3.9570 hc         1 6O8       0.069700
     59 H262         7.6290     4.7200     5.9680 hc         1 6O8       0.058700
     60 H261         9.2810     4.1860     6.3040 hc         1 6O8       0.058700
     61 H272         8.4860     6.3060     4.2750 hc         1 6O8       0.039200
     62 H271        10.1380     5.7730     4.6120 hc         1 6O8       0.039200
     63 H281         8.2480     7.0510     6.6220 hc         1 6O8       0.043700
     64 H282         9.9000     6.5160     6.9600 hc         1 6O8       0.043700
     65 H291         9.8790     8.9310     6.5230 hc         1 6O8       0.032367
     66 H292        10.7360     8.0930     5.2220 hc         1 6O8       0.032367
     67 H3           9.0810     8.6610     4.9670 hc         1 6O8       0.032367
@<TRIPOS>BOND
     1    21    18 1   
     2    20    18 1   
     3    14    12 1   
     4    18    17 1   
     5    18    19 1   
     6    17    16 1   
     7    13    12 1   
     8    12    11 1   
     9    12    15 1   
    10     6     5 2   
    11    16    15 1   
    12    11    10 1   
    13     5     7 1   
    14     5     4 1   
    15    10     9 1   
    16     7     8 1   
    17     4     3 1   
    18     9     8 1   
    19     9    22 1   
    20     3     2 1   
    21     2     1 1   
    22    22    23 1   
    23    23    24 2   
    24    23    25 1   
    25    25    26 1   
    26    26    27 1   
    27    27    28 1   
    28    28    29 1   
    29     1    30 1   
    30     1    31 1   
    31     1    32 1   
    32     2    33 1   
    33     2    34 1   
    34     3    35 1   
    35     3    36 1   
    36     4    37 1   
    37     4    38 1   
    38     8    39 1   
    39     8    40 1   
    40     9    41 1   
    41    10    42 1   
    42    10    43 1   
    43    16    44 1   
    44    16    45 1   
    45    17    46 1   
    46    17    47 1   
    47    19    48 1   
    48    19    49 1   
    49    19    50 1   
    50    20    51 1   
    51    20    52 1   
    52    20    53 1   
    53    21    54 1   
    54    21    55 1   
    55    21    56 1   
    56    25    57 1   
    57    25    58 1   
    58    26    59 1   
    59    26    60 1   
    60    27    61 1   
    61    27    62 1   
    62    28    63 1   
    63    28    64 1   
    64    29    65 1   
    65    29    66 1   
    66    29    67 1   
@<TRIPOS>SUBSTRUCTURE
     1 6O8         1 TEMP              0 ****  ****    0 ROOT
