@<TRIPOS>MOLECULE
molecule
   46    45     1     0     0
SMALL
bcc


@<TRIPOS>ATOM
      1 N01          0.0000     0.0000     0.0000 nz         1 6O9      -0.803600
      2 C02          1.4690     0.0000     0.0000 c3         1 6O9       0.082800
      3 C03          1.9790     0.0000     1.4430 c3         1 6O9       0.201400
      4 O04          1.6020    -1.2210     2.0820 os         1 6O9      -0.608200
      5 P05          1.9740    -1.5630     3.6100 p5         1 6O9       1.339800
      6 O06          1.2210    -0.5310     4.5890 o          1 6O9      -0.795500
      7 O07          3.4370    -1.4450     3.7990 o          1 6O9      -0.795500
      8 O08          1.5070    -3.0650     3.9530 os         1 6O9      -0.596200
      9 C09          1.7910    -3.7020     5.2000 c3         1 6O9       0.214400
     10 C10          1.2080    -5.1170     5.1940 c3         1 6O9       0.138100
     11 C11          1.4010    -5.7540     6.5720 c3         1 6O9       0.147400
     12 O12          0.7460    -7.0490     6.6020 os         1 6O9      -0.428900
     13 C13          0.8210    -7.7440     7.7490 c          1 6O9       0.630100
     14 C14          0.1640    -9.0960     7.8550 c3         1 6O9      -0.126400
     15 C15          0.3990    -9.6680     9.2540 c3         1 6O9      -0.072400
     16 C16         -0.2670   -11.0410     9.3630 c3         1 6O9      -0.086400
     17 C17         -0.0330   -11.6130    10.7620 c3         1 6O9      -0.090100
     18 O18          1.4160    -7.2840     8.6950 o          1 6O9      -0.550000
     19 O19          1.8900    -5.9170     4.1910 os         1 6O9      -0.417900
     20 C20          1.3690    -5.9160     2.9550 c          1 6O9       0.641100
     21 C21          2.0210    -6.7220     1.8610 c3         1 6O9      -0.140100
     22 O22          0.3760    -5.2690     2.7180 o          1 6O9      -0.550000
     23 H012        -0.3340    -0.8810     0.3380 hn         1 6O9       0.453800
     24 H011        -0.3340     0.1470    -0.9320 hn         1 6O9       0.453800
     25 H022         1.8300     0.8850    -0.5110 hx         1 6O9       0.101200
     26 H021         1.8300    -0.8840    -0.5110 hx         1 6O9       0.101200
     27 H032         3.0590     0.0890     1.4440 h1         1 6O9       0.075200
     28 H031         1.5470     0.8360     1.9790 h1         1 6O9       0.075200
     29 H092         2.8630    -3.7530     5.3440 h1         1 6O9       0.051200
     30 H091         1.3450    -3.1310     6.0060 h1         1 6O9       0.051200
     31 H101         0.1510    -5.0710     4.9620 h1         1 6O9       0.085700
     32 H111         2.4600    -5.8800     6.7670 h1         1 6O9       0.065700
     33 H112         0.9690    -5.1120     7.3300 h1         1 6O9       0.065700
     34 H141         0.5900    -9.7640     7.1160 hc         1 6O9       0.070200
     35 H142        -0.9000    -8.9950     7.6800 hc         1 6O9       0.070200
     36 H152         1.4630    -9.7680     9.4290 hc         1 6O9       0.059200
     37 H151        -0.0270    -9.0000     9.9930 hc         1 6O9       0.059200
     38 H161         0.1590   -11.7080     8.6240 hc         1 6O9       0.038700
     39 H162        -1.3320   -10.9400     9.1880 hc         1 6O9       0.038700
     40 H173        -0.4590   -10.9450    11.5010 hc         1 6O9       0.034700
     41 H172        -0.5040   -12.5850    10.8380 hc         1 6O9       0.034700
     42 H3           1.0320   -11.7120    10.9370 hc         1 6O9       0.034700
     43 H213         1.8880    -7.7780     2.0630 hc         1 6O9       0.063033
     44 H212         1.5650    -6.4770     0.9100 hc         1 6O9       0.063033
     45 H4           3.0790    -6.4920     1.8250 hc         1 6O9       0.063033
     46 H013        -0.3340     0.7340     0.5930 hn         1 6O9       0.453800
@<TRIPOS>BOND
     1    17    16 1
     2    16    15 1
     3    15    14 1
     4    14    13 1
     5    18    13 2
     6    13    12 1
     7    12    11 1
     8    11    10 1
     9    19    10 1
    10    19    20 1
    11    21    20 1
    12    10     9 1
    13    20    22 2
    14     9     8 1
    15     8     5 1
    16     5     7 1
    17     5     4 1
    18     5     6 1
    19     4     3 1
    20     3     2 1
    21     2     1 1
    22     1    23 1
    23     1    24 1
    24     2    25 1
    25     2    26 1
    26     3    27 1
    27     3    28 1
    28     9    29 1
    29     9    30 1
    30    10    31 1
    31    11    32 1
    32    11    33 1
    33    14    34 1
    34    14    35 1
    35    15    36 1
    36    15    37 1
    37    16    38 1
    38    16    39 1
    39    17    40 1
    40    17    41 1
    41    17    42 1
    42    21    43 1
    43    21    44 1
    44    21    45 1
    45    46     1 1
@<TRIPOS>SUBSTRUCTURE
     1 6O9         1 TEMP              0 ****  ****    0 ROOT
