@<TRIPOS>MOLECULE
6O9
   46    45     1     0     0
SMALL
bcc


@<TRIPOS>ATOM
      1 N01          0.0000     0.0000     0.0000 nz         1 6O9       0.088400
      2 C02          1.4690     0.0000     0.0000 c3         1 6O9      -0.077200
      3 C03          1.9790     0.0000     1.4430 c3         1 6O9       0.300400
      4 O04          1.6020    -1.2210     2.0820 os         1 6O9      -0.522200
      5 P05          1.9740    -1.5630     3.6100 p5         1 6O9       0.930800
      6 O06          1.2210    -0.5310     4.5890 o          1 6O9      -0.637000
      7 O07          3.4370    -1.4450     3.7990 o          1 6O9      -0.637000
      8 O08          1.5070    -3.0650     3.9530 os         1 6O9      -0.496200
      9 C09          1.7910    -3.7020     5.2000 c3         1 6O9       0.300400
     10 C10          1.2080    -5.1170     5.1940 c3         1 6O9       0.148100
     11 C11          1.4010    -5.7540     6.5720 c3         1 6O9       0.221400
     12 O12          0.7460    -7.0490     6.6020 os         1 6O9      -0.414900
     13 C13          0.8210    -7.7440     7.7490 c          1 6O9       0.692100
     14 C14          0.1640    -9.0960     7.8550 c3         1 6O9      -0.070400
     15 C15          0.3990    -9.6680     9.2540 c3         1 6O9      -0.021400
     16 C16         -0.2670   -11.0410     9.3630 c3         1 6O9      -0.029400
     17 C17         -0.0330   -11.6130    10.7620 c3         1 6O9       0.008900
     18 O18          1.4160    -7.2840     8.6950 o          1 6O9      -0.589000
     19 O19          1.8900    -5.9170     4.1910 os         1 6O9      -0.402900
     20 C20          1.3690    -5.9160     2.9550 c          1 6O9       0.703100
     21 C21          2.0210    -6.7220     1.8610 c3         1 6O9      -0.037100
     22 O22          0.3760    -5.2690     2.7180 o          1 6O9      -0.588000
     23 H012        -0.3340    -0.8810     0.3380 hn         1 6O9       0.217800
     24 H011        -0.3340     0.1470    -0.9320 hn         1 6O9       0.217800
     25 H022         1.8300     0.8850    -0.5110 hx         1 6O9       0.068200
     26 H021         1.8300    -0.8840    -0.5110 hx         1 6O9       0.068200
     27 H032         3.0590     0.0890     1.4440 h1         1 6O9       0.020200
     28 H031         1.5470     0.8360     1.9790 h1         1 6O9       0.020200
     29 H092         2.8630    -3.7530     5.3440 h1         1 6O9      -0.000300
     30 H091         1.3450    -3.1310     6.0060 h1         1 6O9      -0.000300
     31 H101         0.1510    -5.0710     4.9620 h1         1 6O9       0.046700
     32 H111         2.4600    -5.8800     6.7670 h1         1 6O9       0.022200
     33 H112         0.9690    -5.1120     7.3300 h1         1 6O9       0.022200
     34 H141         0.5900    -9.7640     7.1160 hc         1 6O9       0.033700
     35 H142        -0.9000    -8.9950     7.6800 hc         1 6O9       0.033700
     36 H152         1.4630    -9.7680     9.4290 hc         1 6O9       0.029700
     37 H151        -0.0270    -9.0000     9.9930 hc         1 6O9       0.029700
     38 H161         0.1590   -11.7080     8.6240 hc         1 6O9       0.009700
     39 H162        -1.3320   -10.9400     9.1880 hc         1 6O9       0.009700
     40 H173        -0.4590   -10.9450    11.5010 hc         1 6O9       0.001033
     41 H172        -0.5040   -12.5850    10.8380 hc         1 6O9       0.001033
     42 H3           1.0320   -11.7120    10.9370 hc         1 6O9       0.001033
     43 H213         1.8880    -7.7780     2.0630 hc         1 6O9       0.020367
     44 H212         1.5650    -6.4770     0.9100 hc         1 6O9       0.020367
     45 H4           3.0790    -6.4920     1.8250 hc         1 6O9       0.020367
     46 H013        -0.3340     0.7340     0.5930 hn         1 6O9       0.217800
@<TRIPOS>BOND
     1     1     2 1   
     2     1    23 1   
     3     1    24 1   
     4     1    46 1   
     5     2     3 1   
     6     2    25 1   
     7     2    26 1   
     8     3     4 1   
     9     3    27 1   
    10     3    28 1   
    11     4     5 1   
    12     5     6 1   
    13     5     7 1   
    14     5     8 1   
    15     8     9 1   
    16     9    10 1   
    17     9    29 1   
    18     9    30 1   
    19    10    11 1   
    20    10    19 1   
    21    10    31 1   
    22    11    12 1   
    23    11    32 1   
    24    11    33 1   
    25    12    13 1   
    26    13    14 1   
    27    13    18 2   
    28    14    15 1   
    29    14    34 1   
    30    14    35 1   
    31    15    16 1   
    32    15    36 1   
    33    15    37 1   
    34    16    17 1   
    35    16    38 1   
    36    16    39 1   
    37    17    40 1   
    38    17    41 1   
    39    17    42 1   
    40    19    20 1   
    41    20    21 1   
    42    20    22 2   
    43    21    43 1   
    44    21    44 1   
    45    21    45 1   
@<TRIPOS>SUBSTRUCTURE
     1 6O9         1 TEMP              0 ****  ****    0 ROOT
