@<TRIPOS>MOLECULE
6OA
   17    16     1     0     0
SMALL
bcc


@<TRIPOS>ATOM
      1 O3          0.2120    0.9790    0.3860 oh        1 6OA     -0.624800
      2 C5          1.1080   -0.0420    0.8110 c3        1 6OA      0.177600
      3 C4          2.5270    0.3780    0.6980 c2        1 6OA     -0.317200
      4 C3          3.5400   -0.1290    1.4190 ce        1 6OA     -0.032000
      5 C2          3.4360   -1.1410    2.4320 ce        1 6OA     -0.280000
      6 C1          4.4830   -1.6120    3.1520 cf        1 6OA      0.063900
      7 O2          5.7430   -1.1230    2.9300 oh        1 6OA     -0.543100
      8 C           4.3810   -2.6850    4.2370 c         1 6OA      0.887800
      9 O1          3.2630   -3.1860    4.5100 o         1 6OA     -0.812800
     10 O           5.4820   -2.9850    4.7880 o         1 6OA     -0.812800
     11 H5          0.4540    1.7790    0.8660 ho        1 6OA      0.391000
     12 H4          2.7160    1.1510   -0.0620 ha        1 6OA      0.105000
     13 H3          4.5640    0.2500    1.2380 ha        1 6OA      0.114000
     14 H2          2.4470   -1.5760    2.6520 ha        1 6OA      0.147000
     15 H1          6.3400   -1.5950    3.5460 ho        1 6OA      0.448000
     16 H6          0.8870   -0.9030    0.1220 h1        1 6OA      0.044700
     17 H7          0.8500   -0.3420    1.8630 h1        1 6OA      0.044700
@<TRIPOS>BOND
     1    1    2 1   
     2    1   11 1   
     3    2    3 1   
     4    2   16 1   
     5    2   17 1   
     6    3    4 2   
     7    3   12 1   
     8    4    5 1   
     9    4   13 1   
    10    5    6 2   
    11    5   14 1   
    12    6    7 1   
    13    6    8 1   
    14    7   15 1   
    15    8    9 1   
    16    8   10 1   
@<TRIPOS>SUBSTRUCTURE
     1 6OA         1 TEMP              0 ****  ****    0 ROOT
