@<TRIPOS>MOLECULE
molecule
   17    16     1     0     0
SMALL
bcc


@<TRIPOS>ATOM
      1 O3           0.0000     0.0000     0.0000 oh         1 6OA      -0.610800
      2 C5           1.4290     0.0000     0.0000 c3         1 6OA       0.180600
      3 C4           1.9300     0.0000     1.4210 c2         1 6OA      -0.228200
      4 C3           2.9230    -0.8170     1.7780 ce         1 6OA      -0.137000
      5 C2           3.4100    -0.8180     3.1570 ce         1 6OA      -0.402000
      6 C1           4.4180    -1.6480     3.5190 cf         1 6OA       0.187900
      7 O2           4.9770    -2.4800     2.6020 oh         1 6OA      -0.563100
      8 C            4.9060    -1.6490     4.9020 c          1 6OA       0.842800
      9 O1           4.4060    -0.9050     5.7240 o          1 6OA      -0.799800
     10 O            5.9090    -2.4750     5.2630 o          1 6OA      -0.799800
     11 H5          -0.3140     0.0510    -0.8870 ho         1 6OA       0.383000
     12 H4           1.4850     0.6630     2.1530 ha         1 6OA       0.155000
     13 H3           3.3690    -1.4800     1.0460 ha         1 6OA       0.089000
     14 H2           2.7450    -1.5660     2.7430 ha         1 6OA       0.252000
     15 H1           5.8900    -2.2680     2.4990 ho         1 6OA       0.427000
     16 H6           1.7900    -0.8850    -0.5110 h1         1 6OA       0.011700
     17 H7           1.7900     0.8850    -0.5110 h1         1 6OA       0.011700
@<TRIPOS>BOND
     1     1     2 1   
     2     2     3 1   
     3     3     4 2   
     4     4     5 1   
     5     5     6 2   
     6     7     6 1   
     7     6     8 1   
     8     8     9 1   
     9     8    10 1   
    10     1    11 1   
    11     3    12 1   
    12     4    13 1   
    13     5    14 1   
    14     7    15 1   
    15     2    16 1   
    16     2    17 1   
@<TRIPOS>SUBSTRUCTURE
     1 6OA         1 TEMP              0 ****  ****    0 ROOT
