@<TRIPOS>MOLECULE
6OB
   51    50     1     0     0
SMALL
bcc


@<TRIPOS>ATOM
      1 C10         1.8570   -1.1290    0.1880 c3        1 6OB      0.181300
      2 C18        -7.0740   -3.4280   -1.2050 c3        1 6OB     -0.092100
      3 C17        -6.3030   -2.1710   -0.8930 c3        1 6OB     -0.079400
      4 C16        -4.8170   -2.4430   -0.7880 c3        1 6OB     -0.080400
      5 C15        -4.0470   -1.1780   -0.4730 c3        1 6OB     -0.076400
      6 C14        -2.5610   -1.4540   -0.3700 c3        1 6OB     -0.049200
      7 C13        -1.7840   -0.2320   -0.0560 c2        1 6OB     -0.179200
      8 C12        -0.4750   -0.2320    0.2170 c2        1 6OB     -0.163200
      9 C11         0.3620   -1.4520    0.2570 c3        1 6OB     -0.081200
     10 C9          2.3610   -0.5030    1.4480 c2        1 6OB     -0.200200
     11 C8          2.5450   -1.0700    2.6430 c2        1 6OB     -0.142200
     12 C7          2.2530   -2.4710    3.0260 c3        1 6OB     -0.170200
     13 C6          3.5200   -3.2970    3.0740 c         1 6OB      0.579100
     14 O3          3.8130   -4.0410    2.1300 o         1 6OB     -0.555100
     15 C5          4.3660   -3.1500    4.3010 c3        1 6OB     -0.178400
     16 C4          3.7880   -3.9120    5.4790 c3        1 6OB     -0.071400
     17 C3          4.5180   -3.5570    6.7580 c3        1 6OB     -0.068400
     18 C2          3.9390   -4.2760    7.9520 c3        1 6OB     -0.197400
     19 C1          4.4190   -3.6400    9.2720 c         1 6OB      0.909600
     20 O1          4.4640   -2.3780    9.3500 o         1 6OB     -0.849300
     21 O2          4.7240   -4.4180   10.2200 o         1 6OB     -0.849300
     22 OXT         2.5870   -2.2750   -0.2160 oh        1 6OB     -0.603800
     23 H10         2.0260   -0.4090   -0.6700 h1        1 6OB      0.066700
     24 H111        0.1330   -2.0250    1.1960 hc        1 6OB      0.058700
     25 H112        0.1110   -2.1270   -0.6070 hc        1 6OB      0.058700
     26 H9          2.6040    0.5680    1.3310 ha        1 6OB      0.122000
     27 H181       -6.9210   -4.1920   -0.4050 hc        1 6OB      0.031367
     28 H182       -8.1650   -3.2060   -1.2780 hc        1 6OB      0.031367
     29 H183       -6.7370   -3.8660   -2.1760 hc        1 6OB      0.031367
     30 H171       -6.4870   -1.4070   -1.6940 hc        1 6OB      0.037200
     31 H172       -6.6710   -1.7330    0.0720 hc        1 6OB      0.037200
     32 H161       -4.4460   -2.8790   -1.7530 hc        1 6OB      0.040700
     33 H162       -4.6300   -3.2060    0.0130 hc        1 6OB      0.040700
     34 H151       -4.2340   -0.4150   -1.2740 hc        1 6OB      0.039700
     35 H152       -4.4160   -0.7430    0.4920 hc        1 6OB      0.039700
     36 H141       -2.1920   -1.8910   -1.3400 hc        1 6OB      0.049200
     37 H142       -2.3770   -2.2310    0.4220 hc        1 6OB      0.049200
     38 H13        -2.3510    0.7130   -0.0580 ha        1 6OB      0.118000
     39 H12         0.0460    0.7130    0.4470 ha        1 6OB      0.122000
     40 HA          2.9490   -0.4580    3.4710 ha        1 6OB      0.132000
     41 HA1         1.5310   -2.9500    2.3120 hc        1 6OB      0.073200
     42 HB2         1.7780   -2.4810    4.0460 hc        1 6OB      0.073200
     43 HB1         4.4360   -2.0580    4.5590 hc        1 6OB      0.067700
     44 HC2         5.4030   -3.5210    4.0890 hc        1 6OB      0.067700
     45 HC1         3.8670   -5.0140    5.2870 hc        1 6OB      0.034200
     46 HD2         2.6990   -3.6690    5.5940 hc        1 6OB      0.034200
     47 HD1         4.4520   -2.4500    6.9440 hc        1 6OB      0.048700
     48 HE2         5.6040   -3.8120    6.6540 hc        1 6OB      0.048700
     49 HE1         4.2230   -5.3570    7.9360 hc        1 6OB      0.021200
     50 HF2         2.8220   -4.2130    7.9360 hc        1 6OB      0.021200
     51 HOT         2.7060   -2.8550    0.5490 ho        1 6OB      0.422000
@<TRIPOS>BOND
     1    1    9 1   
     2    1   10 1   
     3    1   22 1   
     4    1   23 1   
     5    2    3 1   
     6    2   27 1   
     7    2   28 1   
     8    2   29 1   
     9    3    4 1   
    10    3   30 1   
    11    3   31 1   
    12    4    5 1   
    13    4   32 1   
    14    4   33 1   
    15    5    6 1   
    16    5   34 1   
    17    5   35 1   
    18    6    7 1   
    19    6   36 1   
    20    6   37 1   
    21    7    8 2   
    22    7   38 1   
    23    8    9 1   
    24    8   39 1   
    25    9   24 1   
    26    9   25 1   
    27   10   11 2   
    28   10   26 1   
    29   11   12 1   
    30   11   40 1   
    31   12   13 1   
    32   12   41 1   
    33   12   42 1   
    34   13   14 2   
    35   13   15 1   
    36   15   16 1   
    37   15   43 1   
    38   15   44 1   
    39   16   17 1   
    40   16   45 1   
    41   16   46 1   
    42   17   18 1   
    43   17   47 1   
    44   17   48 1   
    45   18   19 1   
    46   18   49 1   
    47   18   50 1   
    48   19   20 1   
    49   19   21 1   
    50   22   51 1   
@<TRIPOS>SUBSTRUCTURE
     1 6OB         1 TEMP              0 ****  ****    0 ROOT
