@<TRIPOS>MOLECULE
molecule
   51    50     1     0     0
SMALL
bcc


@<TRIPOS>ATOM
      1 C10          1.5300     0.0000     0.0000 c3         1 6OB       0.235300
      2 C18         -6.2450    -3.8050     0.6210 c3         1 6OB      -0.092100
      3 C17         -5.6280    -2.7600    -0.3100 c3         1 6OB      -0.082400
      4 C16         -4.1030    -2.7940    -0.1750 c3         1 6OB      -0.087400
      5 C15         -3.4860    -1.7490    -1.1050 c3         1 6OB      -0.034400
      6 C14         -1.9620    -1.7820    -0.9700 c3         1 6OB      -0.146200
      7 C13         -1.3540    -0.7530    -1.8870 c2         1 6OB      -0.360200
      8 C12         -0.5020     0.1240    -1.4160 c2         1 6OB      -0.357200
      9 C11          0.0000     0.0000     0.0000 c3         1 6OB      -0.152200
     10 C9           2.0320     0.0000     1.4220 c2         1 6OB      -0.236200
     11 C8           2.8640    -0.9290     1.8230 c2         1 6OB      -0.111200
     12 C7           3.3660    -0.9290     3.2430 c3         1 6OB      -0.162200
     13 C6           3.0740    -2.2650     3.8790 c          1 6OB       0.561100
     14 O3           2.5170    -3.1270     3.2430 o          1 6OB      -0.522100
     15 C5           3.4790    -2.5230     5.3070 c3         1 6OB      -0.179400
     16 C4           3.0710    -3.9430     5.7040 c3         1 6OB      -0.079400
     17 C3           3.4820    -4.2060     7.1540 c3         1 6OB      -0.065400
     18 C2           3.0740    -5.6260     7.5510 c3         1 6OB      -0.180400
     19 C1           3.4780    -5.8850     8.9780 c          1 6OB       0.890600
     20 O1           4.0360    -5.0210     9.6150 o          1 6OB      -0.857800
     21 O2           3.2190    -7.0740     9.5450 o          1 6OB      -0.857800
     22 OXT          2.0070    -1.1670    -0.6730 oh         1 6OB      -0.603800
     23 H10          1.8910     0.8840    -0.5110 h1         1 6OB       0.054700
     24 H111        -0.3610     0.8370     0.5860 hc         1 6OB       0.048200
     25 H112        -0.3610    -0.9260     0.4320 hc         1 6OB       0.048200
     26 H9           1.7050     0.7690     2.1120 ha         1 6OB       0.126000
     27 H181        -5.9830    -3.5750     1.6470 hc         1 6OB       0.034367
     28 H182        -7.3230    -3.7940     0.5120 hc         1 6OB       0.034367
     29 H183        -5.8660    -4.7870     0.3640 hc         1 6OB       0.034367
     30 H171        -5.9930    -1.7760    -0.0410 hc         1 6OB       0.040200
     31 H172        -5.9040    -2.9810    -1.3340 hc         1 6OB       0.040200
     32 H161        -3.8270    -2.5730     0.8490 hc         1 6OB       0.045200
     33 H162        -3.7380    -3.7780    -0.4440 hc         1 6OB       0.045200
     34 H151        -3.8510    -0.7650    -0.8360 hc         1 6OB       0.054200
     35 H152        -3.7630    -1.9690    -2.1300 hc         1 6OB       0.054200
     36 H141        -1.5970    -2.7660    -1.2390 hc         1 6OB       0.042700
     37 H142        -1.6860    -1.5620     0.0540 hc         1 6OB       0.042700
     38 H13         -0.8310    -1.6740    -1.6580 ha         1 6OB       0.352000
     39 H12         -1.0720     0.5220    -0.5850 ha         1 6OB       0.329000
     40 HA           3.1910    -1.6970     1.1330 ha         1 6OB       0.155000
     41 HA1          4.4350    -0.7530     3.2480 hc         1 6OB       0.066700
     42 HB2          2.8680    -0.1470     3.8030 hc         1 6OB       0.066700
     43 HB1          4.5530    -2.4160     5.4030 hc         1 6OB       0.062200
     44 HC2          2.9850    -1.8110     5.9570 hc         1 6OB       0.062200
     45 HC1          1.9970    -4.0500     5.6070 hc         1 6OB       0.043200
     46 HD2          3.5640    -4.6550     5.0530 hc         1 6OB       0.043200
     47 HD1          2.9880    -3.4940     7.8040 hc         1 6OB       0.043200
     48 HE2          4.5550    -4.0990     7.2500 hc         1 6OB       0.043200
     49 HE1          3.5670    -6.3380     6.9010 hc         1 6OB       0.029200
     50 HF2          2.0000    -5.7330     7.4550 hc         1 6OB       0.029200
     51 HOT          2.6520    -0.9190    -1.3140 ho         1 6OB       0.410000
@<TRIPOS>BOND
     1     1     9 1
     2     1    10 1
     3     2     3 1
     4     3     4 1
     5     4     5 1
     6     5     6 1
     7     6     7 1
     8     7     8 2
     9     8     9 1
    10    10    11 2
    11    11    12 1
    12    12    13 1
    13    13    14 2
    14    13    15 1
    15    15    16 1
    16    16    17 1
    17    17    18 1
    18    18    19 1
    19    19    20 1
    20    19    21 1
    21     1    23 1
    22     9    24 1
    23     9    25 1
    24    10    26 1
    25     2    27 1
    26     2    28 1
    27     2    29 1
    28     3    30 1
    29     3    31 1
    30     4    32 1
    31     4    33 1
    32     5    34 1
    33     5    35 1
    34     6    36 1
    35     6    37 1
    36     7    38 1
    37     8    39 1
    38    11    40 1
    39    12    41 1
    40    12    42 1
    41    15    43 1
    42    15    44 1
    43    16    45 1
    44    16    46 1
    45    17    47 1
    46    17    48 1
    47    18    49 1
    48    18    50 1
    49    22    51 1
    50    22     1 1
@<TRIPOS>SUBSTRUCTURE
     1 6OB         1 TEMP              0 ****  ****    0 ROOT
