@<TRIPOS>MOLECULE
molecule
   51    50     1     0     0
SMALL
bcc


@<TRIPOS>ATOM
      1 C18          0.0000     0.0000     0.0000 c3         1 6OC      -0.092100
      2 C17          1.5300     0.0000     0.0000 c3         1 6OC      -0.082400
      3 C16          2.0400     0.0000     1.4430 c3         1 6OC      -0.091400
      4 C15          3.5700    -0.0000     1.4430 c3         1 6OC      -0.090400
      5 C14          4.0790     0.0010     2.8860 c3         1 6OC       0.010800
      6 C13          5.5860     0.0000     2.8860 c2         1 6OC      -0.247200
      7 C12          6.2410     0.9000     3.5790 c2         1 6OC      -0.190200
      8 C11          5.4970     1.8220     4.5100 c3         1 6OC       0.291000
      9 C10          6.1060     1.7430     5.8860 c2         1 6OC      -0.197200
     10 C9           6.4740     2.8380     6.5040 c2         1 6OC      -0.256200
     11 C8           6.1340     4.1840     5.9170 c3         1 6OC       0.238300
     12 C7           5.4360     5.0400     6.9760 c3         1 6OC      -0.200400
     13 C6           4.9870     6.3390     6.3550 c          1 6OC       0.563100
     14 O3           5.2040     6.5560     5.1870 o          1 6OC      -0.547100
     15 C5           4.2690     7.3650     7.1930 c3         1 6OC      -0.178400
     16 C4           3.9280     8.5800     6.3280 c3         1 6OC      -0.080400
     17 C3           3.1980     9.6220     7.1780 c3         1 6OC      -0.065400
     18 C2           2.8560    10.8370     6.3140 c3         1 6OC      -0.182400
     19 C1           2.1380    11.8640     7.1510 c          1 6OC       0.891600
     20 O1           1.9210    11.6460     8.3190 o          1 6OC      -0.856800
     21 O2           1.7390    13.0200     6.5980 o          1 6OC      -0.856800
     22 OXT          7.3330     4.8350     5.4930 oh         1 6OC      -0.589800
     23 H181        -0.3610    -0.8850     0.5110 hc         1 6OC       0.032700
     24 H182        -0.3610     0.8840     0.5110 hc         1 6OC       0.032700
     25 H183        -0.3610     0.0000    -1.0210 hc         1 6OC       0.032700
     26 H171         1.8910     0.8840    -0.5110 hc         1 6OC       0.041200
     27 H172         1.8910    -0.8840    -0.5110 hc         1 6OC       0.041200
     28 H161         1.6790     0.8840     1.9530 hc         1 6OC       0.039700
     29 H162         1.6790    -0.8840     1.9530 hc         1 6OC       0.039700
     30 H151         3.9310     0.8840     0.9320 hc         1 6OC       0.053700
     31 H152         3.9310    -0.8850     0.9330 hc         1 6OC       0.053700
     32 H141         3.7180     0.8860     3.3960 hc         1 6OC       0.042200
     33 H142         3.7170    -0.8830     3.3970 hc         1 6OC       0.042200
     34 H13          5.0290    -0.4890     3.6760 ha         1 6OC       0.119000
     35 H12          5.7760     1.8060     3.2100 ha         1 6OC      -0.006000
     36 H111         4.4560     1.5260     4.5580 hc         1 6OC       0.050200
     37 H112         5.5670     2.8390     4.1420 hc         1 6OC       0.050200
     38 H10          5.0490     1.9370     5.7550 ha         1 6OC      -0.013000
     39 H9           7.1010     3.2900     5.7450 ha         1 6OC       0.142000
     40 H8           5.4750     4.0520     5.0680 h1         1 6OC       0.059700
     41 H7C1         6.1260     5.2460     7.7860 hc         1 6OC       0.084200
     42 H7C2         4.5760     4.5070     7.3610 hc         1 6OC       0.084200
     43 H5C1         3.3560     6.9350     7.5870 hc         1 6OC       0.065700
     44 H5C2         4.9070     7.6730     8.0130 hc         1 6OC       0.065700
     45 H4C1         4.8400     9.0110     5.9340 hc         1 6OC       0.043200
     46 H4C2         3.2900     8.2730     5.5080 hc         1 6OC       0.043200
     47 H3C1         2.2860     9.1920     7.5720 hc         1 6OC       0.043700
     48 H3C2         3.8360     9.9300     7.9980 hc         1 6OC       0.043700
     49 H2C1         3.7690    11.2680     5.9190 hc         1 6OC       0.029200
     50 H2C2         2.2180    10.5290     5.4940 hc         1 6OC       0.029200
     51 HOT1         7.3360     4.9080     4.5530 ho         1 6OC       0.421000
@<TRIPOS>BOND
     1     1     2 1   
     2     2     3 1   
     3     3     4 1   
     4     4     5 1   
     5     5     6 1   
     6     6     7 2   
     7     7     8 1   
     8     8     9 1   
     9     9    10 2   
    10    10    11 1   
    11    11    12 1   
    12    12    13 1   
    13    13    14 2   
    14    13    15 1   
    15    15    16 1   
    16    16    17 1   
    17    17    18 1   
    18    18    19 1   
    19    19    20 1   
    20    19    21 1   
    21     1    23 1   
    22     1    24 1   
    23     1    25 1   
    24     2    26 1   
    25     2    27 1   
    26     3    28 1   
    27     3    29 1   
    28     4    30 1   
    29     4    31 1   
    30     5    32 1   
    31     5    33 1   
    32     6    34 1   
    33     7    35 1   
    34     8    36 1   
    35     8    37 1   
    36     9    38 1   
    37    10    39 1   
    38    11    40 1   
    39    12    41 1   
    40    12    42 1   
    41    15    43 1   
    42    15    44 1   
    43    16    45 1   
    44    16    46 1   
    45    17    47 1   
    46    17    48 1   
    47    18    49 1   
    48    18    50 1   
    49    22    51 1   
    50    22    11 1   
@<TRIPOS>SUBSTRUCTURE
     1 6OC         1 TEMP              0 ****  ****    0 ROOT
