@<TRIPOS>MOLECULE
6OC
   51    50     1     0     0
SMALL
bcc


@<TRIPOS>ATOM
      1 C18         0.0450    4.2110    0.5390 c3        1 6OC     -0.109100
      2 C17         0.8680    2.9930    0.8700 c3        1 6OC     -0.058400
      3 C16         1.9050    3.3170    1.9250 c3        1 6OC     -0.104400
      4 C15         2.7070    2.0910    2.3060 c3        1 6OC     -0.068400
      5 C14         3.7250    2.4150    3.3800 c3        1 6OC     -0.061200
      6 C13         4.5880    1.2580    3.7130 c2        1 6OC     -0.149200
      7 C12         5.5530    1.2720    4.6400 c2        1 6OC     -0.195200
      8 C11         5.8980    2.4590    5.4600 c3        1 6OC     -0.033000
      9 C10         6.6630    2.1130    6.6810 c2        1 6OC     -0.135200
     10 C9          7.5350    2.9090    7.3060 c2        1 6OC     -0.227200
     11 C8          7.9580    4.2730    6.8620 c3        1 6OC      0.173300
     12 C7          6.8020    5.2770    6.8850 c3        1 6OC     -0.217400
     13 C6          6.4640    5.8420    5.5320 c         1 6OC      0.572100
     14 O3          7.2060    5.7120    4.5520 o         1 6OC     -0.546100
     15 C5          5.1590    6.5830    5.4540 c3        1 6OC     -0.181400
     16 C4          3.9860    5.6260    5.5270 c3        1 6OC     -0.079400
     17 C3          2.6810    6.3000    5.1560 c3        1 6OC     -0.059400
     18 C2          1.5120    5.3690    5.3780 c3        1 6OC     -0.199400
     19 C1          0.2530    5.8940    4.6660 c         1 6OC      0.911600
     20 O1         -0.2860    6.9520    5.0960 o         1 6OC     -0.849800
     21 O2         -0.1840    5.2240    3.6840 o         1 6OC     -0.849800
     22 OXT         9.0350    4.7440    7.6640 oh        1 6OC     -0.597800
     23 H181        0.6710    4.9770    0.0210 hc        1 6OC      0.044033
     24 H182       -0.8040    3.9380   -0.1320 hc        1 6OC      0.044033
     25 H183       -0.3620    4.6690    1.4800 hc        1 6OC      0.044033
     26 H171        0.1960    2.1790    1.2510 hc        1 6OC      0.014200
     27 H172        1.3710    2.6000   -0.0530 hc        1 6OC      0.014200
     28 H161        1.3820    3.7510    2.8280 hc        1 6OC      0.074200
     29 H162        2.5960    4.1110    1.5370 hc        1 6OC      0.074200
     30 H151        3.2310    1.6850    1.4010 hc        1 6OC      0.025700
     31 H152        2.0160    1.2890    2.6760 hc        1 6OC      0.025700
     32 H141        3.1840    2.7650    4.3040 hc        1 6OC      0.059700
     33 H142        4.3690    3.2730    3.0410 hc        1 6OC      0.059700
     34 H13         4.3960    0.3380    3.1360 ha        1 6OC      0.114000
     35 H12         6.1570    0.3700    4.8250 ha        1 6OC      0.111000
     36 H111        4.9510    2.9890    5.7760 hc        1 6OC      0.069700
     37 H112        6.4750    3.1950    4.8290 hc        1 6OC      0.069700
     38 H10         6.4530    1.1100    7.0940 ha        1 6OC      0.118000
     39 H9          8.0420    2.5560    8.2200 ha        1 6OC      0.118000
     40 H8          8.4090    4.2230    5.8240 h1        1 6OC      0.110700
     41 H7C1        7.0720    6.1410    7.5500 hc        1 6OC      0.075700
     42 H7C2        5.8810    4.7940    7.3070 hc        1 6OC      0.075700
     43 H5C1        5.1140    7.1560    4.4890 hc        1 6OC      0.065200
     44 H5C2        5.1020    7.3220    6.2950 hc        1 6OC      0.065200
     45 H4C1        3.9060    5.2020    6.5630 hc        1 6OC      0.035200
     46 H4C2        4.1640    4.7660    4.8250 hc        1 6OC      0.035200
     47 H3C1        2.7140    6.6090    4.0780 hc        1 6OC      0.045200
     48 H3C2        2.5360    7.2310    5.7630 hc        1 6OC      0.045200
     49 H2C1        1.2970    5.2770    6.4710 hc        1 6OC      0.020700
     50 H2C2        1.7520    4.3480    4.9830 hc        1 6OC      0.020700
     51 HOT1        8.7200    4.7860    8.5750 ho        1 6OC      0.389000
@<TRIPOS>BOND
     1    1    2 1   
     2    1   23 1   
     3    1   24 1   
     4    1   25 1   
     5    2    3 1   
     6    2   26 1   
     7    2   27 1   
     8    3    4 1   
     9    3   28 1   
    10    3   29 1   
    11    4    5 1   
    12    4   30 1   
    13    4   31 1   
    14    5    6 1   
    15    5   32 1   
    16    5   33 1   
    17    6    7 2   
    18    6   34 1   
    19    7    8 1   
    20    7   35 1   
    21    8    9 1   
    22    8   36 1   
    23    8   37 1   
    24    9   10 2   
    25    9   38 1   
    26   10   11 1   
    27   10   39 1   
    28   11   12 1   
    29   11   22 1   
    30   11   40 1   
    31   12   13 1   
    32   12   41 1   
    33   12   42 1   
    34   13   14 2   
    35   13   15 1   
    36   15   16 1   
    37   15   43 1   
    38   15   44 1   
    39   16   17 1   
    40   16   45 1   
    41   16   46 1   
    42   17   18 1   
    43   17   47 1   
    44   17   48 1   
    45   18   19 1   
    46   18   49 1   
    47   18   50 1   
    48   19   20 1   
    49   19   21 1   
    50   22   51 1   
@<TRIPOS>SUBSTRUCTURE
     1 6OC         1 TEMP              0 ****  ****    0 ROOT
