@<TRIPOS>MOLECULE
molecule
   17    16     1     0     0
SMALL
bcc


@<TRIPOS>ATOM
      1 O2           0.0000     0.0000     0.0000 o          1 6OD      -0.767300
      2 C5           1.2140     0.0000     0.0000 c          1 6OD       0.848800
      3 O1           1.8880     0.0000     1.1670 o          1 6OD      -0.767300
      4 C4           1.9530    -0.0060    -1.2800 ce         1 6OD      -0.065200
      5 N            3.3270     0.1320    -1.2850 nz         1 6OD      -0.648400
      6 C3           1.2800    -0.1500    -2.4540 cf         1 6OD      -0.422000
      7 C2          -0.0920    -0.4690    -2.4450 cf         1 6OD      -0.132000
      8 C1          -0.7910    -0.5040    -3.6130 ce         1 6OD      -0.177200
      9 C           -2.1620    -0.8210    -3.6040 c          1 6OD       0.546100
     10 O           -2.7860    -0.8520    -4.6460 o          1 6OD      -0.501100
     11 H2           3.5780     0.9830    -0.8210 hn         1 6OD       0.449800
     12 H3           0.5330     0.6280    -2.3520 ha         1 6OD       0.346000
     13 H5          -0.5920    -0.6860    -1.5090 ha         1 6OD       0.216000
     14 H7          -0.2920    -0.2860    -4.5500 ha         1 6OD       0.159000
     15 H9          -2.6540    -1.0700    -2.6710 h4         1 6OD       0.016200
     16 H4           3.7420    -0.6440    -0.8070 hn         1 6OD       0.449800
     17 HN3          3.6560     0.1570    -2.2290 hn         1 6OD       0.449800
@<TRIPOS>BOND
     1     5     4 1
     2     1     2 1
     3     4     2 1
     4     4     6 2
     5     2     3 1
     6     6     7 1
     7     7     8 2
     8     8     9 1
     9    10     9 2
    10     5    11 1
    11     6    12 1
    12     7    13 1
    13     8    14 1
    14     9    15 1
    15     5    16 1
    16    17     5 1
@<TRIPOS>SUBSTRUCTURE
     1 6OD         1 TEMP              0 ****  ****    0 ROOT
