@<TRIPOS>MOLECULE
6OD
   17    18     1     0     0
SMALL
bcc


@<TRIPOS>ATOM
      1 O2           0.0000     0.0000     0.0000 o          1 6OD      -0.531500
      2 C5           1.2140     0.0000     0.0000 c2         1 6OD       0.454000
      3 O1           1.8880     0.0000     1.1670 o          1 6OD      -0.531500
      4 C4           1.9530    -0.0060    -1.2800 c2         1 6OD      -0.702000
      5 N            3.3270     0.1320    -1.2850 nz         1 6OD       1.061000
      6 C3           1.2800    -0.1500    -2.4540 c3         1 6OD       0.095000
      7 C2          -0.0920    -0.4690    -2.4450 c2         1 6OD       0.178000
      8 C1          -0.7910    -0.5040    -3.6130 c2         1 6OD      -0.191000
      9 C           -2.1620    -0.8210    -3.6040 c3         1 6OD       0.341000
     10 O           -2.7860    -0.8520    -4.6460 o          1 6OD      -0.378000
     11 H2           3.6000     0.7770    -0.5700 hn         1 6OD      -0.027333
     12 H3           1.8250    -0.1540    -3.3910 hc         1 6OD       0.115000
     13 H5           0.6940    -1.1600    -2.7260 DU         1 6OD       0.026000
     14 H7          -1.1860    -1.5080    -3.5180 DU         1 6OD       0.045000
     15 H9          -2.6720    -0.9910    -2.6630 h1         1 6OD       0.102000
     16 H4           3.7520    -0.7570    -1.1120 hn         1 6OD      -0.027333
     17 HN3          3.6240     0.4770    -2.1760 hn         1 6OD      -0.027333
@<TRIPOS>BOND
     1     1     2 1   
     2     2     3 1   
     3     2     4 1   
     4     4     5 1   
     5     4     6 1   
     6     5    11 1   
     7     5    16 1   
     8     5    17 1   
     9     6     7 1   
    10     6    12 1   
    11     6    13 1   
    12     7     8 1   
    13     7    13 1   
    14     8     9 1   
    15     8    14 1   
    16     9    10 1   
    17     9    14 1   
    18     9    15 1   
@<TRIPOS>SUBSTRUCTURE
     1 6OD         1 TEMP              0 ****  ****    0 ROOT
