@<TRIPOS>MOLECULE
6OE
   61    60     1     0     0
SMALL
bcc


@<TRIPOS>ATOM
      1 N01          0.0000     0.0000     0.0000 nz         1 6OE       0.083400
      2 C02          1.4680     0.0000     0.0000 c3         1 6OE      -0.078200
      3 C03          1.9780     0.0000     1.4420 c3         1 6OE       0.298400
      4 O04          1.6010    -1.2200     2.0810 os         1 6OE      -0.525200
      5 P05          1.9720    -1.5630     3.6100 p5         1 6OE       0.917800
      6 O06          3.5700    -1.6920     3.7580 o          1 6OE      -0.632000
      7 O07          1.4820    -0.4780     4.4900 o          1 6OE      -0.632000
      8 O08          1.2800    -2.9520     4.0330 os         1 6OE      -0.493200
      9 C09          1.3340    -3.4770     5.3610 c3         1 6OE       0.294400
     10 C10          0.5780    -4.8060     5.4160 c3         1 6OE       0.152100
     11 C11          1.1430    -5.7580     4.3610 c3         1 6OE       0.233400
     12 O12          1.0970    -5.1200     3.0580 os         1 6OE      -0.355900
     13 C13          1.5590    -5.8270     2.0160 c          1 6OE       0.688100
     14 C14          1.5430    -5.2300     0.6320 c3         1 6OE      -0.069400
     15 C15          2.1210    -6.2360    -0.3650 c3         1 6OE      -0.022400
     16 C16          2.1040    -5.6300    -1.7700 c3         1 6OE      -0.028400
     17 C17          2.6820    -6.6360    -2.7670 c3         1 6OE      -0.026400
     18 C18          2.6650    -6.0290    -4.1710 c3         1 6OE       0.006900
     19 O19          1.9890    -6.9430     2.1860 o          1 6OE      -0.608000
     20 O20         -0.8310    -4.5720     5.1540 os         1 6OE      -0.397900
     21 C21         -1.6150    -4.3160     6.2120 c          1 6OE       0.693100
     22 C22         -3.0870    -4.0640     6.0170 c3         1 6OE      -0.069400
     23 C23         -3.7440    -3.8000     7.3720 c3         1 6OE      -0.021400
     24 C24         -5.2390    -3.5430     7.1740 c3         1 6OE      -0.030400
     25 C25         -5.8970    -3.2800     8.5300 c3         1 6OE      -0.026400
     26 C26         -7.3920    -3.0240     8.3310 c3         1 6OE       0.006900
     27 O27         -1.1400    -4.2880     7.3230 o          1 6OE      -0.594000
     28 H011        -0.3340     0.9170     0.2200 hn         1 6OE       0.217467
     29 H012        -0.3340    -0.6500     0.6840 hn         1 6OE       0.217467
     30 H022         1.8300     0.8850    -0.5110 hx         1 6OE       0.070200
     31 H021         1.8300    -0.8840    -0.5110 hx         1 6OE       0.070200
     32 H032         3.0580     0.0890     1.4440 h1         1 6OE       0.021700
     33 H031         1.5460     0.8370     1.9780 h1         1 6OE       0.021700
     34 H092         2.3670    -3.6380     5.6440 h1         1 6OE       0.003200
     35 H091         0.8780    -2.7730     6.0470 h1         1 6OE       0.003200
     36 H101         0.6930    -5.2460     6.3990 h1         1 6OE       0.043700
     37 H112         2.1700    -6.0020     4.6080 h1         1 6OE       0.012700
     38 H111         0.5520    -6.6660     4.3400 h1         1 6OE       0.012700
     39 H142         0.5240    -4.9910     0.3540 hc         1 6OE       0.027700
     40 H141         2.1420    -4.3270     0.6220 hc         1 6OE       0.027700
     41 H151         1.5230    -7.1390    -0.3550 hc         1 6OE       0.032700
     42 H152         3.1400    -6.4750    -0.0870 hc         1 6OE       0.032700
     43 H161         1.0850    -5.3910    -2.0470 hc         1 6OE       0.004200
     44 H162         2.7020    -4.7270    -1.7800 hc         1 6OE       0.004200
     45 H172         2.0830    -7.5390    -2.7570 hc         1 6OE       0.017700
     46 H171         3.7010    -6.8750    -2.4890 hc         1 6OE       0.017700
     47 H181         1.6450    -5.7900    -4.4490 hc         1 6OE      -0.001967
     48 H182         3.2630    -5.1260    -4.1820 hc         1 6OE      -0.001967
     49 H3           3.0740    -6.7420    -4.8780 hc         1 6OE      -0.001967
     50 H222        -3.5440    -4.9320     5.5570 hc         1 6OE       0.030200
     51 H221        -3.2240    -3.2010     5.3750 hc         1 6OE       0.030200
     52 H231        -3.2870    -2.9320     7.8320 hc         1 6OE       0.031200
     53 H232        -3.6070    -4.6620     8.0140 hc         1 6OE       0.031200
     54 H242        -5.3760    -2.6810     6.5330 hc         1 6OE       0.009700
     55 H241        -5.6970    -4.4110     6.7140 hc         1 6OE       0.009700
     56 H252        -5.4390    -2.4130     8.9900 hc         1 6OE       0.015200
     57 H251        -5.7600    -4.1430     9.1710 hc         1 6OE       0.015200
     58 H262        -7.8490    -3.8910     7.8710 hc         1 6OE      -0.001300
     59 H261        -7.8570    -2.8380     9.2920 hc         1 6OE      -0.001300
     60 H4          -7.5290    -2.1610     7.6910 hc         1 6OE      -0.001300
     61 H013        -0.3340    -0.2750    -0.9030 hn         1 6OE       0.217467
@<TRIPOS>BOND
     1     1     2 1   
     2     1    28 1   
     3     1    29 1   
     4     1    61 1   
     5     2     3 1   
     6     2    30 1   
     7     2    31 1   
     8     3     4 1   
     9     3    32 1   
    10     3    33 1   
    11     4     5 1   
    12     5     6 1   
    13     5     7 1   
    14     5     8 1   
    15     8     9 1   
    16     9    10 1   
    17     9    34 1   
    18     9    35 1   
    19    10    11 1   
    20    10    20 1   
    21    10    36 1   
    22    11    12 1   
    23    11    37 1   
    24    11    38 1   
    25    12    13 1   
    26    13    14 1   
    27    13    19 2   
    28    14    15 1   
    29    14    39 1   
    30    14    40 1   
    31    15    16 1   
    32    15    41 1   
    33    15    42 1   
    34    16    17 1   
    35    16    43 1   
    36    16    44 1   
    37    17    18 1   
    38    17    45 1   
    39    17    46 1   
    40    18    47 1   
    41    18    48 1   
    42    18    49 1   
    43    20    21 1   
    44    21    22 1   
    45    21    27 2   
    46    22    23 1   
    47    22    50 1   
    48    22    51 1   
    49    23    24 1   
    50    23    52 1   
    51    23    53 1   
    52    24    25 1   
    53    24    54 1   
    54    24    55 1   
    55    25    26 1   
    56    25    56 1   
    57    25    57 1   
    58    26    58 1   
    59    26    59 1   
    60    26    60 1   
@<TRIPOS>SUBSTRUCTURE
     1 6OE         1 TEMP              0 ****  ****    0 ROOT
