@<TRIPOS>MOLECULE
molecule
   61    60     1     0     0
SMALL
bcc


@<TRIPOS>ATOM
      1 N01          0.0000     0.0000     0.0000 nz         1 6OE      -0.806600
      2 C02          1.4680     0.0000     0.0000 c3         1 6OE       0.081800
      3 C03          1.9780     0.0000     1.4420 c3         1 6OE       0.199400
      4 O04          1.6010    -1.2200     2.0810 os         1 6OE      -0.611200
      5 P05          1.9720    -1.5630     3.6100 p5         1 6OE       1.329800
      6 O06          3.5700    -1.6920     3.7580 o          1 6OE      -0.793000
      7 O07          1.4820    -0.4780     4.4900 o          1 6OE      -0.793000
      8 O08          1.2800    -2.9520     4.0330 os         1 6OE      -0.590200
      9 C09          1.3340    -3.4770     5.3610 c3         1 6OE       0.212400
     10 C10          0.5780    -4.8060     5.4160 c3         1 6OE       0.140100
     11 C11          1.1430    -5.7580     4.3610 c3         1 6OE       0.161400
     12 O12          1.0970    -5.1200     3.0580 os         1 6OE      -0.376900
     13 C13          1.5590    -5.8270     2.0160 c          1 6OE       0.628100
     14 C14          1.5430    -5.2300     0.6320 c3         1 6OE      -0.125400
     15 C15          2.1210    -6.2360    -0.3650 c3         1 6OE      -0.073400
     16 C16          2.1040    -5.6300    -1.7700 c3         1 6OE      -0.083400
     17 C17          2.6820    -6.6360    -2.7670 c3         1 6OE      -0.082400
     18 C18          2.6650    -6.0290    -4.1710 c3         1 6OE      -0.092100
     19 O19          1.9890    -6.9430     2.1860 o          1 6OE      -0.566000
     20 O20         -0.8310    -4.5720     5.1540 os         1 6OE      -0.413900
     21 C21         -1.6150    -4.3160     6.2120 c          1 6OE       0.630100
     22 C22         -3.0870    -4.0640     6.0170 c3         1 6OE      -0.125400
     23 C23         -3.7440    -3.8000     7.3720 c3         1 6OE      -0.073400
     24 C24         -5.2390    -3.5430     7.1740 c3         1 6OE      -0.083400
     25 C25         -5.8970    -3.2800     8.5300 c3         1 6OE      -0.082400
     26 C26         -7.3920    -3.0240     8.3310 c3         1 6OE      -0.092100
     27 O27         -1.1400    -4.2880     7.3230 o          1 6OE      -0.556000
     28 H011        -0.3340     0.9170     0.2200 hn         1 6OE       0.453467
     29 H012        -0.3340    -0.6500     0.6840 hn         1 6OE       0.453467
     30 H022         1.8300     0.8850    -0.5110 hx         1 6OE       0.102200
     31 H021         1.8300    -0.8840    -0.5110 hx         1 6OE       0.102200
     32 H032         3.0580     0.0890     1.4440 h1         1 6OE       0.076700
     33 H031         1.5460     0.8370     1.9780 h1         1 6OE       0.076700
     34 H092         2.3670    -3.6380     5.6440 h1         1 6OE       0.052700
     35 H091         0.8780    -2.7730     6.0470 h1         1 6OE       0.052700
     36 H101         0.6930    -5.2460     6.3990 h1         1 6OE       0.084700
     37 H112         2.1700    -6.0020     4.6080 h1         1 6OE       0.056700
     38 H111         0.5520    -6.6660     4.3400 h1         1 6OE       0.056700
     39 H142         0.5240    -4.9910     0.3540 hc         1 6OE       0.062700
     40 H141         2.1420    -4.3270     0.6220 hc         1 6OE       0.062700
     41 H151         1.5230    -7.1390    -0.3550 hc         1 6OE       0.062700
     42 H152         3.1400    -6.4750    -0.0870 hc         1 6OE       0.062700
     43 H161         1.0850    -5.3910    -2.0470 hc         1 6OE       0.031200
     44 H162         2.7020    -4.7270    -1.7800 hc         1 6OE       0.031200
     45 H172         2.0830    -7.5390    -2.7570 hc         1 6OE       0.047200
     46 H171         3.7010    -6.8750    -2.4890 hc         1 6OE       0.047200
     47 H181         1.6450    -5.7900    -4.4490 hc         1 6OE       0.030700
     48 H182         3.2630    -5.1260    -4.1820 hc         1 6OE       0.030700
     49 H3           3.0740    -6.7420    -4.8780 hc         1 6OE       0.030700
     50 H222        -3.5440    -4.9320     5.5570 hc         1 6OE       0.066700
     51 H221        -3.2240    -3.2010     5.3750 hc         1 6OE       0.066700
     52 H231        -3.2870    -2.9320     7.8320 hc         1 6OE       0.060700
     53 H232        -3.6070    -4.6620     8.0140 hc         1 6OE       0.060700
     54 H242        -5.3760    -2.6810     6.5330 hc         1 6OE       0.037700
     55 H241        -5.6970    -4.4110     6.7140 hc         1 6OE       0.037700
     56 H252        -5.4390    -2.4130     8.9900 hc         1 6OE       0.044200
     57 H251        -5.7600    -4.1430     9.1710 hc         1 6OE       0.044200
     58 H262        -7.8490    -3.8910     7.8710 hc         1 6OE       0.031700
     59 H261        -7.8570    -2.8380     9.2920 hc         1 6OE       0.031700
     60 H4          -7.5290    -2.1610     7.6910 hc         1 6OE       0.031700
     61 H013        -0.3340    -0.2750    -0.9030 hn         1 6OE       0.453467
@<TRIPOS>BOND
     1    18    17 1
     2    17    16 1
     3    16    15 1
     4    26    25 1
     5    15    14 1
     6    24    25 1
     7    24    23 1
     8    22    23 1
     9    22    21 1
    10    14    13 1
    11    19    13 2
    12    27    21 2
    13    13    12 1
    14    21    20 1
    15    11    12 1
    16    11    10 1
    17    20    10 1
    18    10     9 1
    19     9     8 1
    20     8     5 1
    21     4     5 1
    22     4     3 1
    23     5     7 1
    24     5     6 1
    25     2     3 1
    26     2     1 1
    27     1    28 1
    28     1    29 1
    29     2    30 1
    30     2    31 1
    31     3    32 1
    32     3    33 1
    33     9    34 1
    34     9    35 1
    35    10    36 1
    36    11    37 1
    37    11    38 1
    38    14    39 1
    39    14    40 1
    40    15    41 1
    41    15    42 1
    42    16    43 1
    43    16    44 1
    44    17    45 1
    45    17    46 1
    46    18    47 1
    47    18    48 1
    48    18    49 1
    49    22    50 1
    50    22    51 1
    51    23    52 1
    52    23    53 1
    53    24    54 1
    54    24    55 1
    55    25    56 1
    56    25    57 1
    57    26    58 1
    58    26    59 1
    59    26    60 1
    60    61     1 1
@<TRIPOS>SUBSTRUCTURE
     1 6OE         1 TEMP              0 ****  ****    0 ROOT
