@<TRIPOS>MOLECULE
6OH
   15    14     1     0     0
SMALL
bcc


@<TRIPOS>ATOM
      1 CA6         0.2890    0.2670    1.0900 c         1 6OH      0.579100
      2 OA4         1.4830    0.1570    0.7650 o         1 6OH     -0.611100
      3 CA5        -0.7600   -0.6060    0.6090 ce        1 6OH     -0.384200
      4 CA4        -2.0690   -0.5180    0.9390 cf        1 6OH      0.040000
      5 CA3        -2.6550    0.4460    1.8180 cf        1 6OH     -0.300000
      6 CA2        -3.9850    0.4800    2.1100 ce        1 6OH      0.093900
      7 OA3        -4.3890    1.4660    2.9700 oh        1 6OH     -0.536100
      8 CA1        -5.1190   -0.4270    1.6170 c         1 6OH      0.887800
      9 OA2        -6.2580   -0.1270    2.0810 o         1 6OH     -0.804800
     10 OA1        -4.8820   -1.3700    0.8240 o         1 6OH     -0.804800
     11 H1         -0.0160    1.0790    1.7920 h4        1 6OH     -0.024800
     12 H2         -0.4320   -1.3980   -0.0840 ha        1 6OH      0.125000
     13 H4         -2.7810   -1.2530    0.4990 ha        1 6OH      0.174000
     14 H6         -1.9970    1.1980    2.2820 ha        1 6OH      0.112000
     15 H9         -5.3570    1.3730    3.0890 ho        1 6OH      0.453000
@<TRIPOS>BOND
     1    1    2 2   
     2    1    3 1   
     3    1   11 1   
     4    3    4 2   
     5    3   12 1   
     6    4    5 1   
     7    4   13 1   
     8    5    6 2   
     9    5   14 1   
    10    6    7 1   
    11    6    8 1   
    12    7   15 1   
    13    8    9 1   
    14    8   10 1   
@<TRIPOS>SUBSTRUCTURE
     1 6OH         1 TEMP              0 ****  ****    0 ROOT
