@<TRIPOS>MOLECULE
molecule
   15    14     1     0     0
SMALL
bcc


@<TRIPOS>ATOM
      1 CA6          0.0000     0.0000     0.0000 c          1 6OH       0.588100
      2 OA4          1.2150     0.0000     0.0000 o          1 6OH      -0.605100
      3 CA5         -0.7040     0.0000     1.2210 ce         1 6OH      -0.385200
      4 CA4         -2.0650    -0.0000     1.2210 cf         1 6OH       0.014000
      5 CA3         -2.7710     0.0000     2.4430 cf         1 6OH      -0.256000
      6 CA2         -4.1220     0.1330     2.4470 ce         1 6OH       0.101900
      7 OA3         -4.8150    -0.0250     3.5990 oh         1 6OH      -0.528100
      8 CA1         -4.8370     0.4510     1.1940 c          1 6OH       0.861800
      9 OA2         -6.1840     0.4770     1.1730 o          1 6OH      -0.814300
     10 OA1         -4.2090     0.6880     0.1810 o          1 6OH      -0.814300
     11 H1          -0.5420    -0.0210    -0.9380 h4         1 6OH      -0.019800
     12 H2          -0.1630     0.0010     2.1590 ha         1 6OH       0.125000
     13 H4          -2.6060    -0.0010     0.2830 ha         1 6OH       0.208000
     14 H6          -2.2500    -0.2320     3.3640 ha         1 6OH       0.109000
     15 H9          -4.8370     0.7920     4.0680 ho         1 6OH       0.414000
@<TRIPOS>BOND
     1     1     2 2   
     2     1     3 1   
     3     3     4 2   
     4     4     5 1   
     5    10     8 1   
     6     5     6 2   
     7     8     6 1   
     8     8     9 1   
     9     6     7 1   
    10     1    11 1   
    11     3    12 1   
    12     4    13 1   
    13     5    14 1   
    14     7    15 1   
@<TRIPOS>SUBSTRUCTURE
     1 6OH         1 TEMP              0 ****  ****    0 ROOT
