@<TRIPOS>MOLECULE
molecule
   48    51     1     0     0
SMALL
bcc


@<TRIPOS>ATOM
      1 C2           0.0000     0.0000     0.0000 ca         1 6OK      -0.031000
      2 C4           0.0240    -0.0100    -2.4230 ca         1 6OK       0.168400
      3 C5           1.4180    -0.0100    -2.4290 ca         1 6OK      -0.026000
      4 C6           2.1110     0.0010    -1.2240 ca         1 6OK       0.121400
      5 C1           1.3940     0.0000     0.0000 ca         1 6OK      -0.184600
      6 C3          -0.6800    -0.0050    -1.2000 ca         1 6OK      -0.082200
      7 C7           2.1620     0.0000     1.2510 c          1 6OK       0.726100
      8 N8           3.4680     0.0010    -1.1910 nc         1 6OK      -0.537100
      9 C9           4.1260     0.0010    -0.0610 cd         1 6OK       0.438800
     10 N10          5.4980     0.0020    -0.1020 nz         1 6OK      -0.729600
     11 N11          3.5110     0.0010     1.1590 ns         1 6OK      -0.487400
     12 N12         -2.0290    -0.0060    -1.5340 na         1 6OK      -0.286300
     13 N13         -0.9020    -0.0130    -3.4150 nd         1 6OK      -0.669100
     14 C14         -2.1070    -0.0100    -2.8960 cc         1 6OK       0.719700
     15 N15         -3.2780    -0.0140    -3.6200 nu         1 6OK      -0.857200
     16 C16         -4.5680    -0.0110    -2.9260 c3         1 6OK       0.224800
     17 O18          1.6040    -0.0010     2.3330 o          1 6OK      -0.565500
     18 C17         -5.7000    -0.0150    -3.9540 c3         1 6OK      -0.042100
     19 C19         -9.4630    -0.0080    -1.9300 ca         1 6OK      -0.073300
     20 C20        -10.7860    -0.0060    -1.2100 c3         1 6OK      -0.039100
     21 C21        -10.5460     0.0040     0.3010 c3         1 6OK       0.146400
     22 O22        -11.8010     0.0060     0.9830 oh         1 6OK      -0.607800
     23 C23         -8.8540     1.1880    -2.2620 ca         1 6OK      -0.118000
     24 C24         -7.6360     1.1860    -2.9170 ca         1 6OK      -0.119000
     25 C25         -7.0270    -0.0120    -3.2400 ca         1 6OK      -0.106300
     26 C26         -7.6370    -1.2080    -2.9080 ca         1 6OK      -0.119000
     27 C27         -8.8540    -1.2060    -2.2530 ca         1 6OK      -0.118000
     28 H1          -0.5420     0.1290     0.9290 ha         1 6OK       0.168000
     29 H2           1.9560     0.0930    -3.3630 ha         1 6OK       0.173000
     30 H3           5.8450     0.8230     0.3530 hn         1 6OK       0.473133
     31 H4           5.8030    -0.0060    -1.0550 hn         1 6OK       0.473133
     32 H5           4.0640     0.0000     1.9930 hn         1 6OK       0.338500
     33 H6          -2.7990    -0.0030    -0.8950 hn         1 6OK       0.321700
     34 H8          -3.2480     0.0020    -4.6210 hn         1 6OK       0.484800
     35 H9          -4.6440     0.8750    -2.3080 h1         1 6OK       0.047700
     36 H10         -4.6440    -0.8940    -2.3020 h1         1 6OK       0.047700
     37 H11         -5.6240     0.8680    -4.5770 hc         1 6OK       0.063200
     38 H12         -5.6240    -0.9010    -4.5720 hc         1 6OK       0.063200
     39 H13        -11.3490     0.8760    -1.4920 hc         1 6OK       0.066700
     40 H14        -11.3460    -0.8930    -1.4810 hc         1 6OK       0.066700
     41 H15         -9.9860     0.8910     0.5710 h1         1 6OK       0.020700
     42 H16         -9.9830    -0.8780     0.5820 h1         1 6OK       0.020700
     43 H17        -11.6530     0.0120     1.9140 ho         1 6OK       0.407000
     44 H18         -9.3310     2.1270    -2.0090 ha         1 6OK       0.141000
     45 H19         -7.1600     2.1230    -3.1770 ha         1 6OK       0.131500
     46 H20         -7.1600    -2.1470    -3.1610 ha         1 6OK       0.131500
     47 H21         -9.3300    -2.1440    -1.9940 ha         1 6OK       0.141000
     48 H103         5.8480    -0.7930     0.3960 hn         1 6OK       0.473133
@<TRIPOS>BOND
     1    22    21 1
     2    21    20 1
     3    20    19 1
     4    19    27 ar
     5    19    23 ar
     6    27    26 ar
     7    23    24 ar
     8    26    25 ar
     9    24    25 ar
    10    25    18 1
    11    18    16 1
    12    16    15 1
    13    15    14 1
    14    14    13 2
    15    14    12 1
    16    13     2 1
    17    12     6 1
    18     2     6 ar
    19     2     3 ar
    20     6     1 ar
    21     3     4 ar
    22     1     5 ar
    23     4     5 ar
    24     4     8 1
    25     5     7 1
    26     8     9 2
    27     7    17 2
    28     7    11 1
    29     9    11 1
    30     9    10 1
    31     1    28 1
    32     3    29 1
    33    10    30 1
    34    10    31 1
    35    11    32 1
    36    12    33 1
    37    15    34 1
    38    16    35 1
    39    16    36 1
    40    18    37 1
    41    18    38 1
    42    20    39 1
    43    20    40 1
    44    21    41 1
    45    21    42 1
    46    22    43 1
    47    23    44 1
    48    24    45 1
    49    26    46 1
    50    27    47 1
    51    48    10 1
@<TRIPOS>SUBSTRUCTURE
     1 6OK         1 TEMP              0 ****  ****    0 ROOT
