@<TRIPOS>MOLECULE
molecule
   17    16     1     0     0
SMALL
bcc


@<TRIPOS>ATOM
      1 C1           0.0000     0.0000     0.0000 c2         1 6OM      -0.112400
      2 C2           1.3100     0.0000     0.0000 c2         1 6OM      -0.167200
      3 C3           2.0640     0.0000     1.3040 c3         1 6OM       0.168600
      4 C4          -0.7540    -0.1650    -1.2940 c3         1 6OM      -0.045900
      5 C5          -0.7540     0.1580     1.2950 c3         1 6OM       0.171600
      6 O1           3.1410    -0.9360     1.2330 oh         1 6OM      -0.606800
      7 O2          -1.6790     1.2400     1.1790 oh         1 6OM      -0.604800
      8 H1           1.8480    -0.1190    -0.9320 ha         1 6OM       0.143000
      9 H2           1.3950    -0.2810     2.1080 h1         1 6OM       0.028700
     10 H3           2.4590     0.9910     1.4930 h1         1 6OM       0.028700
     11 H4          -1.7970    -0.3680    -1.0810 hc         1 6OM       0.045367
     12 H5          -0.3330    -0.9920    -1.8540 hc         1 6OM       0.045367
     13 H6          -0.6740     0.7440    -1.8770 hc         1 6OM       0.045367
     14 H7           3.7660    -0.7480     1.9130 ho         1 6OM       0.401000
     15 H8          -2.1600     1.3300     1.9850 ho         1 6OM       0.401000
     16 H9          -0.0550     0.3650     2.0970 h1         1 6OM       0.028200
     17 H10         -1.2930    -0.7560     1.5130 h1         1 6OM       0.028200
@<TRIPOS>BOND
     1     2     3 1   
     2     2     1 2   
     3     3     6 1   
     4     4     1 1   
     5     1     5 1   
     6     5     7 1   
     7     2     8 1   
     8     3     9 1   
     9     3    10 1   
    10     4    11 1   
    11     4    12 1   
    12     4    13 1   
    13     6    14 1   
    14     7    15 1   
    15     5    16 1   
    16     5    17 1   
@<TRIPOS>SUBSTRUCTURE
     1 6OM         1 TEMP              0 ****  ****    0 ROOT
