@<TRIPOS>MOLECULE
molecule
   16    16     1     0     0
SMALL
bcc


@<TRIPOS>ATOM
      1 C01          0.0000     0.0000     0.0000 ca         1 6OR      -0.018000
      2 C02          1.3830     0.0000     0.0000 ca         1 6OR      -0.242500
      3 C03          2.0760     0.0000     1.1960 ca         1 6OR      -0.018000
      4 C04          1.3880    -0.0000     2.3960 ca         1 6OR      -0.021100
      5 C05          0.0010    -0.0000     2.3990 ca         1 6OR       0.119100
      6 C06         -0.6930    -0.0000     1.1970 ca         1 6OR      -0.021100
      7 Cl7         -2.4290     0.0060     1.1960 cl         1 6OR      -0.126900
      8 O08         -0.6780    -0.0010     3.5770 oh         1 6OR      -0.515100
      9 Cl9          2.2610    -0.0020     3.8970 cl         1 6OR      -0.126900
     10 S10          2.2620     0.0010    -1.5260 s6         1 6OR       1.315100
     11 O11          2.4860     1.4540    -1.9170 o          1 6OR      -0.700533
     12 O12          3.5460    -0.5430    -1.2500 o          1 6OR      -0.700533
     13 O13          1.3790    -0.5440    -2.4980 o          1 6OR      -0.700533
     14 H011        -0.5410     0.0040    -0.9380 ha         1 6OR       0.171000
     15 H031         3.1590     0.0040     1.1930 ha         1 6OR       0.171000
     16 H081        -0.8350    -0.8900     3.8480 ho         1 6OR       0.415000
@<TRIPOS>BOND
     1    13    10 1   
     2    12    10 1   
     3    11    10 1   
     4    10     2 1   
     5     2     1 ar  
     6     2     3 ar  
     7     1     6 ar  
     8     3     4 ar  
     9     6     7 1   
    10     6     5 ar  
    11     4     5 ar  
    12     4     9 1   
    13     5     8 1   
    14     1    14 1   
    15     3    15 1   
    16     8    16 1   
@<TRIPOS>SUBSTRUCTURE
     1 6OR         1 TEMP              0 ****  ****    0 ROOT
