@<TRIPOS>MOLECULE
6OS
   32    34     1     0     0
SMALL
bcc


@<TRIPOS>ATOM
      1 C2           0.0000     0.0000     0.0000 ca         1 6OS       0.640900
      2 C4           1.9930     0.0000     1.1440 ca         1 6OS       0.228800
      3 C5           1.2850     0.0000     2.3570 ca         1 6OS      -0.190200
      4 C6          -0.1190     0.0060     2.3050 ca         1 6OS       0.602200
      5 O3'          7.6770     1.2960     1.4550 oh         1 6OS      -0.552800
      6 C3'          6.4040     0.7140     1.7440 c3         1 6OS       0.217300
      7 C2'          5.3310     1.2550     0.7690 c3         1 6OS       0.158100
      8 O2'          5.9230     1.6860    -0.4570 oh         1 6OS      -0.537800
      9 C4'          6.4360    -0.7760     1.4900 c2         1 6OS      -0.149400
     10 C5'          7.5490    -1.6910     1.9300 c3         1 6OS       0.298600
     11 O5'          7.2540    -3.0300     1.5260 oh         1 6OS      -0.592800
     12 C6'          5.3730    -1.1650     0.8410 c2         1 6OS      -0.130200
     13 C1'          4.4550     0.0000     0.5520 c3         1 6OS      -0.062800
     14 N9           3.3230    -0.0000     1.4820 na         1 6OS       0.218000
     15 N3           1.3160     0.0000     0.0000 nb         1 6OS      -0.617000
     16 N1          -0.7090     0.0060     1.1140 nb         1 6OS      -0.658000
     17 C8           3.3980     0.0000     2.8440 cc         1 6OS       0.242700
     18 N7           2.2010    -0.0000     3.3550 nd         1 6OS      -0.484100
     19 N6          -0.8710     0.0060     3.4660 nv         1 6OS      -0.645500
     20 H1          -0.5210    -0.0000    -0.9500 h5         1 6OS      -0.000900
     21 H2           7.9110     1.8970     2.1430 ho         1 6OS       0.383000
     22 H3           6.1150     0.9140     2.7690 h1         1 6OS       0.010700
     23 H4           4.7570     2.0490     1.2310 h1         1 6OS       0.013700
     24 H5           5.5880     2.5370    -0.6860 ho         1 6OS       0.389000
     25 H6           7.6440    -1.6520     3.0090 h1         1 6OS      -0.001800
     26 H7           8.4790    -1.3730     1.4750 h1         1 6OS      -0.001800
     27 H8           7.9740    -3.5940     1.7550 ho         1 6OS       0.395000
     28 H9           4.9590    -2.1500     1.0210 ha         1 6OS       0.139000
     29 H10          4.1080    -0.0420    -0.4740 h1         1 6OS       0.087700
     30 H11          4.3180    -0.0000     3.4160 h5         1 6OS       0.034800
     31 H12         -1.1450     0.8730     3.8850 hn         1 6OS       0.282300
     32 H13         -1.1480    -0.8600     3.8830 hn         1 6OS       0.282300
@<TRIPOS>BOND
     1     1    15 ar  
     2     1    16 ar  
     3     1    20 1   
     4     2     3 ar  
     5     2    14 1   
     6     2    15 ar  
     7     3     4 ar  
     8     3    18 1   
     9     4    16 ar  
    10     4    19 1   
    11     5     6 1   
    12     5    21 1   
    13     6     7 1   
    14     6     9 1   
    15     6    22 1   
    16     7     8 1   
    17     7    13 1   
    18     7    23 1   
    19     8    24 1   
    20     9    10 1   
    21     9    12 2   
    22    10    11 1   
    23    10    25 1   
    24    10    26 1   
    25    11    27 1   
    26    12    13 1   
    27    12    28 1   
    28    13    14 1   
    29    13    29 1   
    30    14    17 1   
    31    17    18 2   
    32    17    30 1   
    33    19    31 1   
    34    19    32 1   
@<TRIPOS>SUBSTRUCTURE
     1 6OS         1 TEMP              0 ****  ****    0 ROOT
