@<TRIPOS>MOLECULE
molecule
   18    18     1     0     0
SMALL
bcc


@<TRIPOS>ATOM
      1 N12          0.0000     0.0000     0.0000 nz         1 6OT      -0.808500
      2 C01          2.7920     2.8820    -2.5610 ca         1 6OT       0.022400
      3 C02          2.9960     3.9670    -1.7260 ca         1 6OT      -0.023000
      4 C03          2.7900     3.8380    -0.3640 ca         1 6OT       0.022400
      5 C04          2.3810     2.6260     0.1630 ca         1 6OT      -0.030500
      6 C05          2.1770     1.5430    -0.6710 ca         1 6OT      -0.329500
      7 C06          2.3810     1.6710    -2.0320 ca         1 6OT      -0.030500
      8 S09          1.6560     0.0000     0.0000 sy         1 6OT       1.236200
      9 O10          2.0570     0.0000     1.3630 o          1 6OT      -0.509800
     10 O11          2.0570    -0.9980    -0.9280 o          1 6OT      -0.509800
     11 H121        -0.3340     0.1060    -0.9380 hn         1 6OT       0.494133
     12 H122        -0.3340    -0.8650     0.3770 hn         1 6OT       0.494133
     13 H021         3.3170     4.9150    -2.1390 ha         1 6OT       0.189000
     14 H041         2.2200     2.5260     1.2290 ha         1 6OT       0.170500
     15 H061         2.2220     0.8220    -2.6860 ha         1 6OT       0.170500
     16 Cl7          3.0430     3.0430    -4.2710 cl         1 6OT      -0.026400
     17 H123        -0.3340     0.7860     0.5220 hn         1 6OT       0.494133
     18 Cl8          3.0470     5.1980     0.6840 cl         1 6OT      -0.026400
@<TRIPOS>BOND
     1     1     8 1   
     2    10     8 2   
     3     8     6 1   
     4     8     9 2   
     5    16     2 1   
     6     7     6 ar  
     7     7     2 ar  
     8     6     5 ar  
     9     2     3 ar  
    10     5     4 ar  
    11     3     4 ar  
    12     4    18 1   
    13     1    11 1   
    14     1    12 1   
    15     3    13 1   
    16     5    14 1   
    17     7    15 1   
    18    17     1 1   
@<TRIPOS>SUBSTRUCTURE
     1 6OT         1 TEMP              0 ****  ****    0 ROOT
