@<TRIPOS>MOLECULE
6OT
   18    18     1     0     0
SMALL
bcc


@<TRIPOS>ATOM
      1 N12          0.0000     0.0000     0.0000 nz         1 6OT      -0.131500
      2 C01          2.7920     2.8820    -2.5610 ca         1 6OT      -0.065600
      3 C02          2.9960     3.9670    -1.7260 ca         1 6OT       0.006000
      4 C03          2.7900     3.8380    -0.3640 ca         1 6OT      -0.065600
      5 C04          2.3810     2.6260     0.1630 ca         1 6OT       0.003500
      6 C05          2.1770     1.5430    -0.6710 ca         1 6OT      -0.208500
      7 C06          2.3810     1.6710    -2.0320 ca         1 6OT       0.003500
      8 S09          1.6560     0.0000     0.0000 sy         1 6OT       0.940200
      9 O10          2.0570     0.0000     1.3630 o          1 6OT      -0.491800
     10 O11          2.0570    -0.9980    -0.9280 o          1 6OT      -0.491800
     11 H121        -0.3340     0.1060    -0.9380 hn         1 6OT       0.314133
     12 H122        -0.3340    -0.8650     0.3770 hn         1 6OT       0.314133
     13 H021         3.3170     4.9150    -2.1390 ha         1 6OT       0.144000
     14 H041         2.2200     2.5260     1.2290 ha         1 6OT       0.136000
     15 H061         2.2220     0.8220    -2.6860 ha         1 6OT       0.136000
     16 Cl7          3.0430     3.0430    -4.2710 cl         1 6OT       0.071100
     17 H123        -0.3340     0.7860     0.5220 hn         1 6OT       0.314133
     18 Cl8          3.0470     5.1980     0.6840 cl         1 6OT       0.071100
@<TRIPOS>BOND
     1     1     8 1   
     2     1    11 1   
     3     1    12 1   
     4     1    17 1   
     5     2     3 ar  
     6     2     7 ar  
     7     2    16 1   
     8     3     4 ar  
     9     3    13 1   
    10     4     5 ar  
    11     4    18 1   
    12     5     6 ar  
    13     5    14 1   
    14     6     7 ar  
    15     6     8 1   
    16     7    15 1   
    17     8     9 2   
    18     8    10 2   
@<TRIPOS>SUBSTRUCTURE
     1 6OT         1 TEMP              0 ****  ****    0 ROOT
