@<TRIPOS>MOLECULE
molecule
   64    66     1     0     0
SMALL
bcc


@<TRIPOS>ATOM
      1 C4           0.0000     0.0000     0.0000 c3         1 6OV      -0.064400
      2 C5           1.5290     0.0000     0.0000 c3         1 6OV      -0.079400
      3 C6           2.0390     0.0000     1.4430 c3         1 6OV      -0.064400
      4 N1          -2.6810     4.8190     2.8220 n          1 6OV      -0.455800
      5 C7           1.5300     1.2490     2.1640 c3         1 6OV      -0.139400
      6 C8          -2.5480     3.7210     3.5930 c          1 6OV       0.670100
      7 C9          -2.3640     4.9030     1.3850 c3         1 6OV       0.071000
      8 C10         -2.0830     6.4050     1.1280 c3         1 6OV      -0.084400
      9 C11         -3.1230     7.0800     2.0600 c3         1 6OV      -0.091400
     10 C12         -3.1730     6.1290     3.2740 c3         1 6OV       0.042700
     11 N3          -9.1330    12.9810     5.5170 nz         1 6OV      -0.930600
     12 C13         -4.5890     6.0080     3.7740 c          1 6OV       0.659100
     13 C14         -6.6160     6.9820     4.7130 c3         1 6OV       0.152300
     14 C15         -7.1080     8.3350     5.1580 ca         1 6OV      -0.057300
     15 N4          -8.3140    12.5370     7.6440 n2         1 6OV      -0.664100
     16 O1          -2.8410     3.7680     4.7690 o          1 6OV      -0.571100
     17 C           -2.0360     2.4380     2.9950 c3         1 6OV       0.089500
     18 C1          -0.5110     2.4990     2.8850 c3         1 6OV      -0.212400
     19 C2          -0.0010     1.2490     2.1640 c3         1 6OV       0.003300
     20 C3          -0.5110     1.2490     0.7210 c3         1 6OV      -0.139400
     21 N           -2.4200     1.3090     3.8520 nz         1 6OV      -0.816600
     22 O           -5.1430     4.9300     3.7690 o          1 6OV      -0.590100
     23 C21         -6.9190     8.7410     6.4660 ca         1 6OV      -0.088000
     24 C20         -7.3670     9.9780     6.8810 ca         1 6OV      -0.094000
     25 C18         -8.0120    10.8210     5.9760 ca         1 6OV      -0.264900
     26 C19         -8.4950    12.1510     6.4130 ce         1 6OV       0.491800
     27 C17         -8.2000    10.4070     4.6570 ca         1 6OV      -0.094000
     28 C16         -7.7420     9.1690     4.2550 ca         1 6OV      -0.088000
     29 H1          -0.3600     0.0030    -1.0220 hc         1 6OV       0.053700
     30 H2          -0.3600    -0.8840     0.5130 hc         1 6OV       0.053700
     31 H3           1.8890     0.8860    -0.5090 hc         1 6OV       0.062700
     32 H4           1.8890    -0.8860    -0.5090 hc         1 6OV       0.062700
     33 H5           3.1220     0.0020     1.4410 hc         1 6OV       0.053700
     34 H6           1.6750    -0.8840     1.9530 hc         1 6OV       0.053700
     35 H7           1.8890     1.2460     3.1860 hc         1 6OV       0.058700
     36 H8           1.8900     2.1330     1.6510 hc         1 6OV       0.058700
     37 H9          -4.7690     7.9830     4.2610 hn         1 6OV       0.320500
     38 H10         -1.4850     4.3120     1.1590 h1         1 6OV       0.060200
     39 H11         -3.2100     4.5730     0.7940 h1         1 6OV       0.060200
     40 H12         -2.2690     6.6600     0.0920 hc         1 6OV       0.080200
     41 H13         -1.0740     6.6640     1.4240 hc         1 6OV       0.080200
     42 H14         -4.0910     7.1310     1.5760 hc         1 6OV       0.072700
     43 H15         -2.7840     8.0640     2.3600 hc         1 6OV       0.072700
     44 H16         -2.5310     6.5080     4.0600 h1         1 6OV       0.093700
     45 H17         -8.3770    12.3300     5.4340 hn         1 6OV       0.525800
     46 H18        -10.0340    12.7140     5.1750 hn         1 6OV       0.525800
     47 H19         -7.2500     6.6120     3.9160 h1         1 6OV       0.079700
     48 H20         -6.6460     6.2940     5.5490 h1         1 6OV       0.079700
     49 H21         -7.8510    11.9340     8.2960 hn         1 6OV       0.479400
     50 H22         -2.4630     2.3030     2.0080 hx         1 6OV       0.096700
     51 H23         -1.1230     2.5310     1.9920 hc         1 6OV       0.117200
     52 H24          0.0320     3.4350     2.8300 hc         1 6OV       0.117200
     53 H25         -0.3600     0.3620     2.6720 hc         1 6OV       0.009700
     54 H26         -0.9020     0.5140     1.4150 hc         1 6OV       0.058700
     55 H27         -1.4010     1.7750     0.4000 hc         1 6OV       0.058700
     56 H28         -3.0910     1.6170     4.5280 hn         1 6OV       0.464133
     57 H29         -1.6100     0.9580     4.3240 hn         1 6OV       0.464133
     58 H31         -6.4180     8.0850     7.1680 ha         1 6OV       0.171000
     59 H32         -7.2180    10.2940     7.9060 ha         1 6OV       0.145000
     60 H33         -8.6990    11.0580     3.9500 ha         1 6OV       0.145000
     61 H34         -7.8870     8.8460     3.2310 ha         1 6OV       0.171000
     62 N2          -5.2390     7.1000     4.2260 ns         1 6OV      -0.586900
     63 H331        -8.9200    13.9590     5.5370 hn         1 6OV       0.525800
     64 HN3         -2.8060     0.5780     3.2890 hn         1 6OV       0.464133
@<TRIPOS>BOND
     1    22    12 2   
     2    13    62 1   
     3    13    14 1   
     4     9     8 1   
     5     9    10 1   
     6    12    62 1   
     7    12    10 1   
     8     8     7 1   
     9    10     4 1   
    10    14    28 ar  
    11    14    23 ar  
    12     7     4 1   
    13    28    27 ar  
    14    23    24 ar  
    15     4     6 1   
    16     6    16 2   
    17     6    17 1   
    18    27    25 ar  
    19    24    25 ar  
    20    25    26 1   
    21    21    17 1   
    22    17    18 1   
    23    26    15 2   
    24    26    11 1   
    25     5     3 1   
    26     5    19 1   
    27     3     2 1   
    28    18    19 1   
    29    19    20 1   
    30     2     1 1   
    31    20     1 1   
    32     1    29 1   
    33     1    30 1   
    34     2    31 1   
    35     2    32 1   
    36     3    33 1   
    37     3    34 1   
    38     5    35 1   
    39     5    36 1   
    40    62    37 1   
    41     7    38 1   
    42     7    39 1   
    43     8    40 1   
    44     8    41 1   
    45     9    42 1   
    46     9    43 1   
    47    10    44 1   
    48    11    45 1   
    49    11    46 1   
    50    13    47 1   
    51    13    48 1   
    52    15    49 1   
    53    17    50 1   
    54    18    51 1   
    55    18    52 1   
    56    19    53 1   
    57    20    54 1   
    58    20    55 1   
    59    21    56 1   
    60    21    57 1   
    61    23    58 1   
    62    24    59 1   
    63    27    60 1   
    64    28    61 1   
    65    63    11 1   
    66    64    21 1   
@<TRIPOS>SUBSTRUCTURE
     1 6OV         1 TEMP              0 ****  ****    0 ROOT
