@<TRIPOS>MOLECULE
6OV
   64    67     1     0     0
SMALL
bcc


@<TRIPOS>ATOM
      1 C4           0.0000     0.0000     0.0000 c3         1 6OV      -0.076000
      2 C5           1.5290     0.0000     0.0000 c3         1 6OV      -0.106000
      3 C6           2.0390     0.0000     1.4430 c3         1 6OV      -0.076000
      4 N1          -2.6810     4.8190     2.8220 n          1 6OV       0.061000
      5 C7           1.5300     1.2490     2.1640 c3         1 6OV      -0.179500
      6 C8          -2.5480     3.7210     3.5930 c2         1 6OV       0.232000
      7 C9          -2.3640     4.9030     1.3850 c3         1 6OV      -0.102000
      8 C10         -2.0830     6.4050     1.1280 c3         1 6OV      -0.095000
      9 C11         -3.1230     7.0800     2.0600 c3         1 6OV      -0.107000
     10 C12         -3.1730     6.1290     3.2740 c3         1 6OV      -0.071000
     11 N3          -9.1330    12.9810     5.5170 nz         1 6OV       0.510000
     12 C13         -4.5890     6.0080     3.7740 c2         1 6OV       0.218000
     13 C14         -6.6160     6.9820     4.7130 c3         1 6OV      -0.022000
     14 C15         -7.1080     8.3350     5.1580 ca         1 6OV      -0.060000
     15 N4          -8.3230    12.5330     7.6470 n2         1 6OV       0.086000
     16 O1          -2.8410     3.7680     4.7690 o          1 6OV      -0.372000
     17 C           -2.0360     2.4380     2.9950 c3         1 6OV      -0.221000
     18 C1          -0.5110     2.4990     2.8850 c3         1 6OV      -0.268000
     19 C2          -0.0010     1.2490     2.1640 c3         1 6OV       0.025000
     20 C3          -0.5110     1.2490     0.7210 c3         1 6OV      -0.179500
     21 N           -2.4200     1.3090     3.8520 nz         1 6OV       0.799000
     22 O           -5.1430     4.9300     3.7690 o          1 6OV      -0.399000
     23 C21         -6.9190     8.7410     6.4660 ca         1 6OV      -0.061000
     24 C20         -7.3670     9.9780     6.8810 ca         1 6OV      -0.053500
     25 C18         -8.0120    10.8210     5.9760 ca         1 6OV      -0.132000
     26 C19         -8.4950    12.1510     6.4130 c3         1 6OV      -0.238000
     27 C17         -8.2000    10.4070     4.6570 ca         1 6OV      -0.053500
     28 C16         -7.7420     9.1690     4.2550 ca         1 6OV      -0.061000
     29 H1          -0.3600     0.0030    -1.0220 hc         1 6OV       0.061500
     30 H2          -0.3600    -0.8840     0.5130 hc         1 6OV       0.061500
     31 H3           1.8890    -0.8860    -0.5090 hc         1 6OV       0.072000
     32 H4           1.8890     0.8860    -0.5090 hc         1 6OV       0.072000
     33 H5           3.1220     0.0020     1.4410 hc         1 6OV       0.061500
     34 H6           1.6750    -0.8840     1.9530 hc         1 6OV       0.061500
     35 H7           1.8890     1.2460     3.1860 hc         1 6OV       0.071750
     36 H8           1.8900     2.1330     1.6510 hc         1 6OV       0.071750
     37 H9          -4.7670     7.9810     4.2680 hn         1 6OV       0.092000
     38 H10         -1.4850     4.3120     1.1590 h1         1 6OV       0.071500
     39 H11         -3.2100     4.5730     0.7940 h1         1 6OV       0.071500
     40 H12         -2.2690     6.6600     0.0920 hc         1 6OV       0.083000
     41 H13         -1.0740     6.6640     1.4240 hc         1 6OV       0.083000
     42 H14         -2.7840     8.0640     2.3600 hc         1 6OV       0.076500
     43 H15         -4.0910     7.1310     1.5760 hc         1 6OV       0.076500
     44 H16         -2.5310     6.5080     4.0600 h1         1 6OV       0.101000
     45 H17         -8.3730    12.3350     5.4360 DU         1 6OV       0.201000
     46 H18        -10.0310    12.7100     5.1690 hn         1 6OV       0.085500
     47 H19         -7.2500     6.6120     3.9160 h1         1 6OV       0.084000
     48 H20         -6.6460     6.2940     5.5490 h1         1 6OV       0.084000
     49 H21         -8.6530    13.4290     7.9440 hn         1 6OV       0.108000
     50 H22         -2.4630     2.3030     2.0080 hx         1 6OV       0.115000
     51 H23         -1.1230     2.5310     1.9920 hc         1 6OV       0.130000
     52 H24          0.0320     3.4350     2.8300 hc         1 6OV       0.130000
     53 H25         -0.3600     0.3620     2.6720 hc         1 6OV       0.029000
     54 H26         -0.9020     0.5140     1.4150 hc         1 6OV       0.071750
     55 H27         -1.4010     1.7750     0.4000 hc         1 6OV       0.071750
     56 H28         -2.8070     0.5780     3.2890 hn         1 6OV       0.037000
     57 H29         -3.1020     1.6140     4.5190 hn         1 6OV       0.037000
     58 H31         -6.4180     8.0850     7.1680 ha         1 6OV       0.132500
     59 H32         -7.2180    10.2940     7.9060 ha         1 6OV       0.119500
     60 H33         -8.6990    11.0580     3.9500 ha         1 6OV       0.119500
     61 H34         -7.8870     8.8460     3.2310 ha         1 6OV       0.132500
     62 N2          -5.2390     7.1000     4.2260 ns         1 6OV       0.005000
     63 H331        -8.9260    13.9600     5.5420 hn         1 6OV       0.085500
     64 HN3         -1.6160     0.9770     4.3460 hn         1 6OV       0.037000
@<TRIPOS>BOND
     1     1     2 1   
     2     1    20 1   
     3     1    29 1   
     4     1    30 1   
     5     2     3 1   
     6     2    31 1   
     7     2    32 1   
     8     3     5 1   
     9     3    33 1   
    10     3    34 1   
    11     4     6 1   
    12     4     7 1   
    13     4    10 1   
    14     5    19 1   
    15     5    35 1   
    16     5    36 1   
    17     6    16 1   
    18     6    17 1   
    19     7     8 1   
    20     7    38 1   
    21     7    39 1   
    22     8     9 1   
    23     8    40 1   
    24     8    41 1   
    25     9    10 1   
    26     9    42 1   
    27     9    43 1   
    28    10    12 1   
    29    10    44 1   
    30    11    26 1   
    31    11    45 1   
    32    11    46 1   
    33    11    63 1   
    34    12    22 1   
    35    12    62 1   
    36    13    14 1   
    37    13    47 1   
    38    13    48 1   
    39    13    62 1   
    40    14    23 1   
    41    14    28 1   
    42    15    26 1   
    43    15    49 1   
    44    17    18 1   
    45    17    21 1   
    46    17    50 1   
    47    18    19 1   
    48    18    51 1   
    49    18    52 1   
    50    19    20 1   
    51    19    53 1   
    52    20    54 1   
    53    20    55 1   
    54    21    56 1   
    55    21    57 1   
    56    21    64 1   
    57    23    24 1   
    58    23    58 1   
    59    24    25 1   
    60    24    59 1   
    61    25    26 1   
    62    25    27 1   
    63    26    45 1   
    64    27    28 1   
    65    27    60 1   
    66    28    61 1   
    67    37    62 1   
@<TRIPOS>SUBSTRUCTURE
     1 6OV         1 TEMP              0 ****  ****    0 ROOT
