@<TRIPOS>MOLECULE
molecule
   28    30     1     0     0
SMALL
bcc


@<TRIPOS>ATOM
      1 C4           0.0000     0.0000     0.0000 cc         1 6OW       0.111400
      2 C5           0.6300    -0.0000     2.0790 cd         1 6OW      -0.005300
      3 C6           3.0000     0.0010     1.9140 cc         1 6OW      -0.075300
      4 C7           3.3770    -0.7860    -1.3690 cd         1 6OW      -0.348300
      5 C10         -0.8830     0.0050    -1.2200 c3         1 6OW      -0.016900
      6 C13          3.9060    -0.4720    -2.6200 cd         1 6OW       0.336200
      7 C15          1.9610     0.0010     4.0660 cc         1 6OW      -0.076300
      8 C1           1.3780     0.0000     0.0000 cc         1 6OW      -0.161300
      9 N2           1.7720     0.0000     1.3200 na         1 6OW       0.065700
     10 C3           2.2570    -0.0000    -1.1810 cc         1 6OW       0.000900
     11 N8           2.1200     0.7760    -2.2950 na         1 6OW      -0.032600
     12 N9          -0.4180     0.0010     1.2630 nc         1 6OW      -0.316600
     13 C11          0.7310     0.0010     3.4840 cd         1 6OW      -0.095000
     14 C12          3.1110     0.0010     3.2610 cd         1 6OW      -0.157000
     15 N14          3.1640     0.4560    -3.1700 nc         1 6OW      -0.508800
     16 C16          2.0890     0.0020     5.5670 c3         1 6OW      -0.045800
     17 H61          3.8930     0.0010     1.3020 h4         1 6OW       0.170000
     18 H101        -0.8630     0.9880    -1.6760 hc         1 6OW       0.052367
     19 H102        -0.5220    -0.7290    -1.9300 hc         1 6OW       0.052367
     20 H103        -1.8980    -0.2390    -0.9320 hc         1 6OW       0.052367
     21 H131         4.7890    -0.9190    -3.0620 h4         1 6OW       0.048100
     22 H1           1.4010     1.4520    -2.4580 hn         1 6OW       0.333700
     23 H111        -0.1630     0.0020     4.0950 ha         1 6OW       0.163000
     24 H121         4.0920     0.0010     3.7210 ha         1 6OW       0.152000
     25 H161         3.1120    -0.2220     5.8430 hc         1 6OW       0.049033
     26 H162         1.8170     0.9780     5.9520 hc         1 6OW       0.049033
     27 H163         1.4300    -0.7480     5.9860 hc         1 6OW       0.049033
     28 H71          3.7690    -1.5170    -0.6730 ha         1 6OW       0.155000
@<TRIPOS>BOND
     1    15    11 1   
     2    15     6 2   
     3    11    10 1   
     4     6     4 1   
     5    10     4 2   
     6    10     8 1   
     7     5     1 1   
     8     8     1 2   
     9     8     9 1   
    10     1    12 1   
    11     9     3 1   
    12     9     2 1   
    13    12     2 2   
    14     3    14 2   
    15     2    13 1   
    16    14     7 1   
    17    13     7 2   
    18     7    16 1   
    19     3    17 1   
    20     4    28 1   
    21     5    18 1   
    22     5    19 1   
    23     5    20 1   
    24     6    21 1   
    25    11    22 1   
    26    13    23 1   
    27    14    24 1   
    28    16    25 1   
    29    16    26 1   
    30    16    27 1   
@<TRIPOS>SUBSTRUCTURE
     1 6OW         1 TEMP              0 ****  ****    0 ROOT
