@<TRIPOS>MOLECULE
molecule
   68    71     1     0     0
SMALL
bcc


@<TRIPOS>ATOM
      1 C1           0.0000     0.0000     0.0000 ca         1 6OX      -0.111000
      2 C2           1.3820     0.0000     0.0000 ca         1 6OX      -0.122000
      3 C3          -0.0020     0.0130     2.3950 ca         1 6OX       0.043400
      4 C4           1.3820     0.0010     2.3960 ca         1 6OX      -0.075300
      5 C5           2.1350    -0.0120     3.7020 c3         1 6OX      -0.020000
      6 C6           2.0730     0.0000     1.1980 ca         1 6OX       0.043400
      7 C10          3.2880     6.0400     0.0530 ca         1 6OX      -0.033000
      8 C12          3.1420     4.8530     2.2410 cp         1 6OX      -0.008000
      9 C13          1.3650     0.7740     4.7330 cc         1 6OX       0.428800
     10 C14          1.9140     3.0440     3.9440 ca         1 6OX      -0.039200
     11 C15          3.0410     3.7360     4.3650 ca         1 6OX      -0.091000
     12 C16          0.1120     1.2590     6.4220 cd         1 6OX       0.317600
     13 C17          0.4980     2.4300     5.8810 cc         1 6OX      -0.225600
     14 C25          2.7040     8.9450    -2.3840 c3         1 6OX      -0.216300
     15 O1           2.1430     6.3390    -2.4920 o          1 6OX      -0.621800
     16 O2           4.3780     7.0630    -3.2650 o          1 6OX      -0.621800
     17 C22          3.9040     6.9420    -0.7910 ca         1 6OX      -0.250500
     18 C23          5.0280     7.6300    -0.3710 ca         1 6OX      -0.035300
     19 O4           5.1240     9.9090    -1.1100 oh         1 6OX      -0.614800
     20 C9           5.5410     7.4190     0.8970 ca         1 6OX       0.131900
     21 F1           6.6390     8.0950     1.3030 f          1 6OX      -0.134900
     22 C8           4.9330     6.5180     1.7510 ca         1 6OX      -0.110000
     23 C7           3.8000     5.8220     1.3310 cp         1 6OX      -0.031000
     24 C26          2.0130     4.1540     1.8180 ca         1 6OX      -0.155000
     25 C27          1.4010     3.2530     2.6670 ca         1 6OX       0.152900
     26 F2           0.3080     2.5740     2.2580 f          1 6OX      -0.115900
     27 C11          3.6550     4.6370     3.5190 ca         1 6OX      -0.132000
     28 N2           1.2930     2.1280     4.8060 na         1 6OX      -0.114000
     29 C18         -0.7770     1.0940     7.6290 c3         1 6OX       0.142500
     30 C19         -1.8650     0.0630     7.3220 c3         1 6OX      -0.114100
     31 C20          0.0610     0.6140     8.8150 c3         1 6OX      -0.114100
     32 O3          -1.3830     2.3470     7.9490 oh         1 6OX      -0.610800
     33 N1           0.6540     0.2660     5.7020 nd         1 6OX      -0.681000
     34 C28          2.3010    -1.4550     4.1800 c3         1 6OX      -0.086100
     35 C29          3.5130     0.6220     3.5020 c3         1 6OX      -0.086100
     36 Cl1         -0.8700     0.0140     3.8980 cl         1 6OX      -0.080400
     37 C21         -0.6920     0.0070     1.1970 ca         1 6OX      -0.122000
     38 Cl2          3.8100    -0.0010     1.1990 cl         1 6OX      -0.080400
     39 H1          -0.5410    -0.0020    -0.9380 ha         1 6OX       0.142000
     40 H2           1.9240    -0.0030    -0.9380 ha         1 6OX       0.147500
     41 H3           2.4430     5.4600    -0.2980 ha         1 6OX       0.169000
     42 H4           3.4390     3.5700     5.3590 ha         1 6OX       0.155000
     43 H5           0.2290     3.4210     6.2270 h4         1 6OX       0.192000
     44 H6           6.7560     8.6520    -1.0800 h1         1 6OX       0.071200
     45 H7           5.5490     8.3000    -2.3240 h1         1 6OX       0.071200
     46 H8           1.7160     9.0140    -2.8230 h1         1 6OX       0.108033
     47 H9           2.6690     9.2980    -1.3600 h1         1 6OX       0.108033
     48 H10          3.3950     9.5550    -2.9530 h1         1 6OX       0.108033
     49 H11          5.8020    10.5620    -1.1560 ho         1 6OX       0.415000
     50 H12          5.3350     6.3520     2.7430 ha         1 6OX       0.154000
     51 H13          1.6150     4.3170     0.8230 ha         1 6OX       0.162000
     52 H14          4.5340     5.1760     3.8480 ha         1 6OX       0.144000
     53 H15         -2.4530     0.4000     6.4770 hc         1 6OX       0.044867
     54 H16         -1.4050    -0.8890     7.0870 hc         1 6OX       0.044867
     55 H17         -2.5080    -0.0510     8.1870 hc         1 6OX       0.044867
     56 H18         -0.5720     0.5180     9.6890 hc         1 6OX       0.044867
     57 H19          0.5010    -0.3480     8.5820 hc         1 6OX       0.044867
     58 H20          0.8480     1.3310     9.0160 hc         1 6OX       0.044867
     59 H21         -1.9380     2.2440     8.7040 ho         1 6OX       0.407000
     60 H22          1.3270    -1.9210     4.2690 hc         1 6OX       0.049033
     61 H23          2.7940    -1.4620     5.1440 hc         1 6OX       0.049033
     62 H24          2.9000    -2.0060     3.4640 hc         1 6OX       0.049033
     63 H25          4.2110    -0.1330     3.1610 hc         1 6OX       0.049033
     64 H26          3.8590     1.0370     4.4400 hc         1 6OX       0.049033
     65 H27          3.4440     1.4100     2.7620 hc         1 6OX       0.049033
     66 H28         -1.7760     0.0120     1.1960 ha         1 6OX       0.147500
     67 C24          5.6950     8.6140    -1.2980 c3         1 6OX       0.135700
     68 S1           3.2570     7.2180    -2.4060 sy         1 6OX       1.194300
@<TRIPOS>BOND
     1    36     3 1
     2    37     3 ar
     3    37     1 ar
     4     3     4 ar
     5    26    25 1
     6     1     2 ar
     7    31    29 1
     8    35     5 1
     9     4     5 1
    10     4     6 ar
    11    25    24 ar
    12    25    10 ar
    13    24     8 ar
    14    14    68 1
    15     2     6 ar
    16     5     9 1
    17     5    34 1
    18    33     9 2
    19    33    12 1
    20     9    28 1
    21     6    38 1
    22    12    29 1
    23    12    13 2
    24    29    30 1
    25    29    32 1
    26    28    13 1
    27    28    10 1
    28    15    68 2
    29    10    11 ar
    30     8    23 1
    31     8    27 ar
    32    68    17 1
    33    68    16 2
    34     7    23 ar
    35     7    17 ar
    36    23    22 ar
    37    17    18 ar
    38    11    27 ar
    39    22    20 ar
    40    18    20 ar
    41    18    67 1
    42    20    21 1
    43    67    19 1
    44     1    39 1
    45     2    40 1
    46     7    41 1
    47    11    42 1
    48    13    43 1
    49    67    44 1
    50    67    45 1
    51    14    46 1
    52    14    47 1
    53    14    48 1
    54    19    49 1
    55    22    50 1
    56    24    51 1
    57    27    52 1
    58    30    53 1
    59    30    54 1
    60    30    55 1
    61    31    56 1
    62    31    57 1
    63    31    58 1
    64    32    59 1
    65    34    60 1
    66    34    61 1
    67    34    62 1
    68    35    63 1
    69    35    64 1
    70    35    65 1
    71    37    66 1
@<TRIPOS>SUBSTRUCTURE
     1 6OX         1 TEMP              0 ****  ****    0 ROOT
