@<TRIPOS>MOLECULE
molecule
   40    42     1     0     0
SMALL
bcc


@<TRIPOS>ATOM
      1 C01          0.0000     0.0000     0.0000 ca         1 6OZ      -0.068300
      2 C02         -0.4940     1.2820    -2.0410 cc         1 6OZ       0.350600
      3 C04          1.3820     0.0000     0.0000 ca         1 6OZ      -0.115000
      4 C05          2.0740     0.0000     1.1960 ca         1 6OZ      -0.129000
      5 C06          1.3830     0.0000     2.3940 ca         1 6OZ      -0.130000
      6 C07          0.0000     0.0020     2.3940 ca         1 6OZ      -0.129000
      7 N09          0.1150     3.3450    -2.5210 na         1 6OZ      -0.038600
      8 C11         -0.7710     1.5200    -3.3880 cd         1 6OZ      -0.326300
      9 C15         -0.7700     4.8020    -5.1720 cd         1 6OZ       0.387600
     10 C16         -1.0050     5.7680    -4.0400 c3         1 6OZ      -0.121400
     11 C18         -0.4970     3.4920    -4.9760 cc         1 6OZ      -0.100400
     12 C03         -0.7540    -0.0060    -1.3050 c3         1 6OZ      -0.033000
     13 C08         -0.6910     0.0010     1.1970 ca         1 6OZ      -0.115000
     14 N10          0.0360     2.3620    -1.5260 nd         1 6OZ      -0.489800
     15 C12         -0.3870     2.8130    -3.6720 cc         1 6OZ       0.005700
     16 N13         -0.8170     5.1590    -6.4360 nd         1 6OZ      -0.683000
     17 C14         -0.5980     4.2430    -7.3190 cc         1 6OZ       0.449700
     18 S17         -0.2950     2.7420    -6.5580 ss         1 6OZ      -0.165300
     19 H1           1.9240    -0.0000    -0.9380 ha         1 6OZ       0.132500
     20 H2           3.1580    -0.0010     1.1960 ha         1 6OZ       0.127000
     21 H3           1.9250     0.0010     3.3320 ha         1 6OZ       0.126000
     22 H4          -0.5420     0.0020     3.3320 ha         1 6OZ       0.127000
     23 H5           0.4780     4.2710    -2.4080 hn         1 6OZ       0.332700
     24 H6          -1.2110     0.8150    -4.0840 ha         1 6OZ       0.159000
     25 H7          -1.7650     5.3710    -3.3780 hc         1 6OZ       0.053033
     26 H8          -1.3340     6.7190    -4.4390 hc         1 6OZ       0.053033
     27 H9          -0.0830     5.9080    -3.4870 hc         1 6OZ       0.053033
     28 H10         -1.5610     4.8860    -9.1050 hc         1 6OZ       0.059367
     29 H11         -0.4590     3.5180    -9.3160 hc         1 6OZ       0.059367
     30 H12          0.1880     5.1480    -9.0780 hc         1 6OZ       0.059367
     31 H13         -1.0000    -1.3640    -2.9520 hc         1 6OZ       0.041867
     32 H14         -0.2030    -2.0700    -1.5400 hc         1 6OZ       0.041867
     33 H15          0.6830    -0.9570    -2.5910 hc         1 6OZ       0.041867
     34 H16         -2.7920    -0.1740    -1.9660 hc         1 6OZ       0.041867
     35 H17         -2.4360    -1.0550    -0.4750 hc         1 6OZ       0.041867
     36 H18         -2.5900     0.7070    -0.4450 hc         1 6OZ       0.041867
     37 H19         -1.7740     0.0020     1.1970 ha         1 6OZ       0.132500
     38 C19         -0.6080     4.4640    -8.8090 c3         1 6OZ      -0.113400
     39 C20         -0.2840    -1.1850    -2.1590 c3         1 6OZ      -0.080600
     40 C21         -2.2520    -0.1420    -1.0280 c3         1 6OZ      -0.080600
@<TRIPOS>BOND
     1    38    17 1
     2    17    18 1
     3    17    16 2
     4    18    11 1
     5    16     9 1
     6    11     9 2
     7    11    15 1
     8     9    10 1
     9    40    12 1
    10     8    15 2
    11     8     2 1
    12    15     7 1
    13     3     4 ar
    14     3     1 ar
    15     4     5 ar
    16     2    12 1
    17     2    14 2
    18    12     1 1
    19    12    39 1
    20     1    13 ar
    21     7    14 1
    22     5     6 ar
    23    13     6 ar
    24     3    19 1
    25     4    20 1
    26     5    21 1
    27     6    22 1
    28     7    23 1
    29     8    24 1
    30    10    25 1
    31    10    26 1
    32    10    27 1
    33    38    28 1
    34    38    29 1
    35    38    30 1
    36    39    31 1
    37    39    32 1
    38    39    33 1
    39    40    34 1
    40    40    35 1
    41    40    36 1
    42    13    37 1
@<TRIPOS>SUBSTRUCTURE
     1 6OZ         1 TEMP              0 ****  ****    0 ROOT
