@<TRIPOS>MOLECULE
molecule
   43    46     1     0     0
SMALL
bcc


@<TRIPOS>ATOM
      1 C01          0.0000     0.0000     0.0000 cx         1 6P0      -0.118400
      2 C02          1.5300     0.0000     0.0000 cx         1 6P0      -0.100000
      3 C04          2.5710    -4.1010    -3.8610 cc         1 6P0      -0.079300
      4 C05          3.3780    -3.8100    -2.7980 cd         1 6P0      -0.259300
      5 C06          4.5990    -4.4860    -2.9930 cd         1 6P0       0.351600
      6 C10          5.7870    -4.4540    -2.0670 c3         1 6P0      -0.113400
      7 C11          3.0320    -2.9410    -1.6500 cd         1 6P0       0.019700
      8 C15          2.3330    -1.7680    -1.7040 cc         1 6P0      -0.333300
      9 C16          2.2260     1.2750    -0.4020 ca         1 6P0      -0.079300
     10 C17          3.6010     1.3720    -0.2990 ca         1 6P0      -0.082500
     11 C18          4.2410     2.5390    -0.6670 ca         1 6P0      -0.190500
     12 C19          3.5040     3.6150    -1.1390 ca         1 6P0       0.138100
     13 C20          2.1240     3.5150    -1.2420 ca         1 6P0      -0.190500
     14 C21          1.4890     2.3430    -0.8780 ca         1 6P0      -0.082500
     15 C23          3.3090     5.8300    -1.9790 c3         1 6P0       0.129700
     16 C03          0.7650     0.0000     1.3240 cx         1 6P0      -0.118400
     17 N07          4.5200    -5.1480    -4.1180 nc         1 6P0      -0.510800
     18 N08          3.2590    -4.9220    -4.6810 na         1 6P0       0.070400
     19 C09          2.7680    -5.4860    -5.9410 c3         1 6P0       0.063600
     20 N12          3.3480    -3.1650    -0.3440 na         1 6P0      -0.044600
     21 N13          2.8340    -2.1020     0.4090 nd         1 6P0      -0.512800
     22 C14          2.2250    -1.2750    -0.4020 cc         1 6P0       0.378600
     23 O22          4.1320     4.7640    -1.5010 os         1 6P0      -0.329900
     24 H1          -0.4680     0.9390    -0.2700 hc         1 6P0       0.080700
     25 H2          -0.4680    -0.9390    -0.2700 hc         1 6P0       0.080700
     26 H4           6.6380    -4.9130    -2.5550 hc         1 6P0       0.052367
     27 H5           6.0240    -3.4260    -1.8200 hc         1 6P0       0.052367
     28 H6           5.5520    -4.9990    -1.1610 hc         1 6P0       0.052367
     29 H7           1.9940    -1.2700    -2.6040 ha         1 6P0       0.158000
     30 H8           4.1770     0.5320     0.0690 ha         1 6P0       0.139500
     31 H9           5.3190     2.6140    -0.5860 ha         1 6P0       0.138000
     32 H10          1.5460     4.3530    -1.6120 ha         1 6P0       0.138000
     33 H11          0.4120     2.2640    -0.9580 ha         1 6P0       0.139500
     34 H12          3.9310     6.6810    -2.2300 h1         1 6P0       0.040700
     35 H13          2.6020     6.1140    -1.2080 h1         1 6P0       0.040700
     36 H14          2.7700     5.5030    -2.8600 h1         1 6P0       0.040700
     37 H15          0.7650    -0.9390     1.8640 hc         1 6P0       0.080700
     38 H16          0.7650     0.9390     1.8640 hc         1 6P0       0.080700
     39 H17          3.5370    -6.1070    -6.3830 h1         1 6P0       0.057033
     40 H18          1.8860    -6.0850    -5.7480 h1         1 6P0       0.057033
     41 H19          2.5160    -4.6820    -6.6220 h1         1 6P0       0.057033
     42 H20          3.8620    -3.9470     0.0120 hn         1 6P0       0.329700
     43 H3           1.5630    -3.7380    -4.0180 h4         1 6P0       0.179000
@<TRIPOS>BOND
     1    15    23 1
     2    23    12 1
     3    13    12 ar
     4    13    14 ar
     5    12    11 ar
     6    14     9 ar
     7    11    10 ar
     8     1     2 1
     9     1    16 1
    10     9    10 ar
    11     9     2 1
    12     2    16 1
    13     2    22 1
    14    22     8 1
    15    22    21 2
    16     8     7 2
    17    21    20 1
    18     7    20 1
    19     7     4 1
    20     4     3 2
    21     4     5 1
    22     3    18 1
    23     5     6 1
    24     5    17 2
    25    18    19 1
    26    18    17 1
    27     1    24 1
    28     1    25 1
    29     3    43 1
    30     6    26 1
    31     6    27 1
    32     6    28 1
    33     8    29 1
    34    10    30 1
    35    11    31 1
    36    13    32 1
    37    14    33 1
    38    15    34 1
    39    15    35 1
    40    15    36 1
    41    16    37 1
    42    16    38 1
    43    19    39 1
    44    19    40 1
    45    19    41 1
    46    20    42 1
@<TRIPOS>SUBSTRUCTURE
     1 6P0         1 TEMP              0 ****  ****    0 ROOT
