@<TRIPOS>MOLECULE
molecule
   41    43     1     0     0
SMALL
bcc


@<TRIPOS>ATOM
      1 C01          0.0000     0.0000     0.0000 cc         1 6P1       0.449700
      2 C04          0.4340    -0.0000     2.1820 cd         1 6P1       0.388600
      3 C06         -0.8600     0.0060    -1.2380 c3         1 6P1      -0.113400
      4 C07          2.9160    -0.0000     2.6250 cc         1 6P1       0.008700
      5 N09          3.0480     0.6290     3.8280 na         1 6P1      -0.036600
      6 C11          4.9680    -0.3800     3.4370 cd         1 6P1       0.352600
      7 C13          6.3810    -0.8840     3.5710 c3         1 6P1      -0.037700
      8 C15          7.0400    -0.9270     2.1920 c3         1 6P1      -0.087100
      9 C16          5.6980    -3.2910     3.5170 ca         1 6P1      -0.080000
     10 C17          5.6840    -4.5600     4.0590 ca         1 6P1      -0.189500
     11 C18          6.3360    -4.8090     5.2590 ca         1 6P1       0.140100
     12 C19          7.0010    -3.7810     5.9100 ca         1 6P1      -0.189500
     13 C20          7.0130    -2.5130     5.3630 ca         1 6P1      -0.080000
     14 C22          7.0160    -6.2410     7.0310 c3         1 6P1       0.128700
     15 S02          1.7100     0.0000     0.0000 ss         1 6P1      -0.165300
     16 C03          1.7200     0.0000     1.7630 cc         1 6P1      -0.101400
     17 N05         -0.4500    -0.0000     1.2110 nd         1 6P1      -0.683000
     18 C08          0.0500     0.0010     3.6390 c3         1 6P1      -0.122400
     19 N10          4.3390     0.3710     4.3050 nc         1 6P1      -0.502800
     20 C12          4.1130    -0.6320     2.3640 cd         1 6P1      -0.329300
     21 C14          6.3670    -2.2680     4.1650 ca         1 6P1      -0.116300
     22 O21          6.3230    -6.0580     5.7940 os         1 6P1      -0.329900
     23 H1          -1.4300    -0.9140    -1.2860 hc         1 6P1       0.059367
     24 H2          -0.2300     0.0870    -2.1150 hc         1 6P1       0.059367
     25 H3          -1.5390     0.8500    -1.2020 hc         1 6P1       0.059367
     26 H4           2.3470     1.1770     4.2870 hn         1 6P1       0.332700
     27 H5           6.9410    -0.2190     4.2180 hc         1 6P1       0.070700
     28 H6           6.5900    -0.1770     1.5530 hc         1 6P1       0.041700
     29 H7           6.8980    -1.9070     1.7540 hc         1 6P1       0.041700
     30 H8           8.1000    -0.7260     2.2920 hc         1 6P1       0.041700
     31 H9           5.1890    -3.0960     2.5800 ha         1 6P1       0.135000
     32 H10          5.1610    -5.3610     3.5500 ha         1 6P1       0.138500
     33 H11          7.5100    -3.9720     6.8470 ha         1 6P1       0.138500
     34 H12          7.5330    -1.7100     5.8710 ha         1 6P1       0.135000
     35 H13          6.5830    -5.5960     7.7870 h1         1 6P1       0.041033
     36 H14          6.9280    -7.2740     7.3440 h1         1 6P1       0.041033
     37 H15          8.0620    -5.9910     6.8990 h1         1 6P1       0.041033
     38 H16          0.3240     0.9490     4.0850 hc         1 6P1       0.053367
     39 H17          0.5680    -0.8020     4.1500 hc         1 6P1       0.053367
     40 H18         -1.0200    -0.1450     3.7300 hc         1 6P1       0.053367
     41 H19          4.3460    -1.2240     1.4870 ha         1 6P1       0.158000
@<TRIPOS>BOND
     1    22    14 1   
     2    22    11 1   
     3     3     1 1   
     4    12    11 ar  
     5    12    13 ar  
     6    11    10 ar  
     7     1    15 1   
     8     1    17 2   
     9    15    16 1   
    10    13    21 ar  
    11    17     2 1   
    12    10     9 ar  
    13     2    16 2   
    14     2    18 1   
    15    16     4 1   
    16    20     4 2   
    17    20     6 1   
    18    21     9 ar  
    19    21     7 1   
    20     4     5 1   
    21     8     7 1   
    22     6     7 1   
    23     6    19 2   
    24     5    19 1   
    25     3    23 1   
    26     3    24 1   
    27     3    25 1   
    28     5    26 1   
    29     7    27 1   
    30     8    28 1   
    31     8    29 1   
    32     8    30 1   
    33     9    31 1   
    34    10    32 1   
    35    12    33 1   
    36    13    34 1   
    37    14    35 1   
    38    14    36 1   
    39    14    37 1   
    40    18    38 1   
    41    18    39 1   
    42    18    40 1   
    43    20    41 1   
@<TRIPOS>SUBSTRUCTURE
     1 6P1         1 TEMP              0 ****  ****    0 ROOT
