@<TRIPOS>MOLECULE
molecule
   42    45     1     0     0
SMALL
bcc


@<TRIPOS>ATOM
      1 C01          0.0000     0.0000     0.0000 cx         1 6P2      -0.117400
      2 C02          1.5300     0.0000     0.0000 cx         1 6P2      -0.102000
      3 C05          3.2960    -3.8740    -2.7690 cc         1 6P2      -0.101400
      4 C06          4.4400    -4.5710    -2.9510 cc         1 6P2       0.388600
      5 C10          5.5910    -4.5220    -1.9810 c3         1 6P2      -0.123400
      6 C11          2.9950    -2.9760    -1.6380 cc         1 6P2       0.004700
      7 C15          2.2650    -1.8080    -1.6910 cd         1 6P2      -0.313300
      8 C16          2.2260     1.2750    -0.4030 ca         1 6P2      -0.080300
      9 C17          3.6010     1.3720    -0.3000 ca         1 6P2      -0.082500
     10 C18          4.2420     2.5390    -0.6670 ca         1 6P2      -0.189500
     11 C19          3.5040     3.6140    -1.1390 ca         1 6P2       0.139100
     12 C20          2.1250     3.5150    -1.2420 ca         1 6P2      -0.189500
     13 C21          1.4890     2.3430    -0.8790 ca         1 6P2      -0.082500
     14 C23          3.3090     5.8300    -1.9800 c3         1 6P2       0.129700
     15 C03          0.7640     0.0000     1.3250 cx         1 6P2      -0.117400
     16 S04          2.2300    -4.2230    -4.1280 ss         1 6P2      -0.162300
     17 N07          4.4590    -5.2970    -4.0460 nc         1 6P2      -0.684000
     18 C08          3.4080    -5.2660    -4.7960 cd         1 6P2       0.449700
     19 C09          3.2480    -6.0300    -6.0850 c3         1 6P2      -0.113400
     20 N12          3.3850    -3.1480    -0.3420 na         1 6P2      -0.038600
     21 N13          2.8890    -2.0680     0.4000 nc         1 6P2      -0.503800
     22 C14          2.2250    -1.2760    -0.4030 cd         1 6P2       0.380600
     23 O22          4.1320     4.7640    -1.5020 os         1 6P2      -0.329900
     24 H1          -0.4680    -0.9390    -0.2700 hc         1 6P2       0.081200
     25 H2          -0.4680     0.9390    -0.2700 hc         1 6P2       0.081200
     26 H3           5.3450    -5.0990    -1.0980 hc         1 6P2       0.053700
     27 H4           6.4750    -4.9390    -2.4490 hc         1 6P2       0.053700
     28 H5           5.7830    -3.4940    -1.6990 hc         1 6P2       0.053700
     29 H6           1.7240    -1.4340    -2.5520 ha         1 6P2       0.163000
     30 H7           4.1770     0.5320     0.0700 ha         1 6P2       0.139000
     31 H8           5.3200     2.6150    -0.5850 ha         1 6P2       0.139000
     32 H9           1.5470     4.3520    -1.6140 ha         1 6P2       0.139000
     33 H10          0.4120     2.2640    -0.9590 ha         1 6P2       0.139000
     34 H11          2.7700     5.5030    -2.8610 h1         1 6P2       0.040700
     35 H12          2.6020     6.1140    -1.2100 h1         1 6P2       0.040700
     36 H13          3.9300     6.6810    -2.2320 h1         1 6P2       0.040700
     37 H14          0.7640    -0.9390     1.8650 hc         1 6P2       0.081200
     38 H15          0.7640     0.9390     1.8650 hc         1 6P2       0.081200
     39 H16          2.2550    -5.8620    -6.4830 hc         1 6P2       0.059367
     40 H17          3.9870    -5.6900    -6.8010 hc         1 6P2       0.059367
     41 H18          3.3880    -7.0880    -5.8980 hc         1 6P2       0.059367
     42 H19          3.9300    -3.9080     0.0150 hn         1 6P2       0.333700
@<TRIPOS>BOND
     1    19    18 1
     2    17    18 2
     3    17     4 1
     4     5     4 1
     5    18    16 1
     6     4     3 2
     7     3    16 1
     8     3     6 1
     9    20     6 1
    10    20    21 1
    11     6     7 2
    12    21    22 2
    13     7    22 1
    14    22     2 1
    15    15     2 1
    16    15     1 1
    17     2     8 1
    18     2     1 1
    19    13     8 ar
    20    13    12 ar
    21     8     9 ar
    22    12    11 ar
    23     9    10 ar
    24    11    10 ar
    25    11    23 1
    26    14    23 1
    27     1    24 1
    28     1    25 1
    29     5    26 1
    30     5    27 1
    31     5    28 1
    32     7    29 1
    33     9    30 1
    34    10    31 1
    35    12    32 1
    36    13    33 1
    37    14    34 1
    38    14    35 1
    39    14    36 1
    40    15    37 1
    41    15    38 1
    42    19    39 1
    43    19    40 1
    44    19    41 1
    45    20    42 1
@<TRIPOS>SUBSTRUCTURE
     1 6P2         1 TEMP              0 ****  ****    0 ROOT
