@<TRIPOS>MOLECULE
molecule
   23    24     1     0     0
SMALL
bcc


@<TRIPOS>ATOM
      1 C1           0.0000     0.0000     0.0000 cp         1 6P3      -0.108500
      2 C2           1.3940     0.0000     0.0000 ca         1 6P3      -0.113500
      3 C3           2.0820     0.0000     1.1950 ca         1 6P3      -0.141000
      4 C4           1.3910    -0.0020     2.3940 ca         1 6P3      -0.146000
      5 C5           0.0080    -0.0030     2.4020 ca         1 6P3      -0.141000
      6 C6          -0.6910     0.0030     1.2120 ca         1 6P3      -0.113500
      7 C12         -0.7450     0.0010    -1.2800 cp         1 6P3       0.428800
      8 N13         -0.0760     0.0030    -2.4280 nb         1 6P3      -0.721000
      9 C14         -0.6920     0.0040    -3.5900 ca         1 6P3       0.438200
     10 C15         -2.0880     0.0030    -3.6550 ca         1 6P3      -0.210900
     11 C16         -2.8260     0.0010    -2.4640 ca         1 6P3      -0.083000
     12 C17         -2.1400    -0.0060    -1.2660 ca         1 6P3      -0.261300
     13 C21         -2.7740     0.0050    -4.9620 c          1 6P3       0.882200
     14 O22         -3.9880     0.0040    -5.0110 o          1 6P3      -0.832300
     15 O23         -2.0550     0.0070    -6.1020 o          1 6P3      -0.832300
     16 H1           1.9370    -0.0000    -0.9380 ha         1 6P3       0.144500
     17 H2           3.1650     0.0000     1.1960 ha         1 6P3       0.117000
     18 H3           1.9350    -0.0040     3.3300 ha         1 6P3       0.113000
     19 H4          -0.5280    -0.0030     3.3430 ha         1 6P3       0.117000
     20 H5          -1.7740     0.0030     1.2190 ha         1 6P3       0.144500
     21 H6          -0.1120     0.0060    -4.5040 h4         1 6P3       0.050100
     22 H7          -3.9090    -0.0020    -2.4830 ha         1 6P3       0.152000
     23 H8          -2.6790    -0.0080    -0.3260 ha         1 6P3       0.116000
@<TRIPOS>BOND
     1     4     3 ar  
     2     4     5 ar  
     3     3     2 ar  
     4     5     6 ar  
     5     2     1 ar  
     6     6     1 ar  
     7     1     7 1   
     8     7     8 ar  
     9     7    12 ar  
    10     8     9 ar  
    11    12    11 ar  
    12     9    10 ar  
    13    11    10 ar  
    14    10    13 1   
    15    13    14 1   
    16    13    15 1   
    17     2    16 1   
    18     3    17 1   
    19     4    18 1   
    20     5    19 1   
    21     6    20 1   
    22     9    21 1   
    23    11    22 1   
    24    12    23 1   
@<TRIPOS>SUBSTRUCTURE
     1 6P3         1 TEMP              0 ****  ****    0 ROOT
