@<TRIPOS>MOLECULE
6P3
   23    24     1     0     0
SMALL
bcc


@<TRIPOS>ATOM
      1 C1          0.0200    0.0370   -0.0130 cp        1 6P3     -0.103500
      2 C2          1.3500   -0.4030    0.0520 ca        1 6P3     -0.115000
      3 C3          2.0260   -0.4170    1.2700 ca        1 6P3     -0.142500
      4 C4          1.3870    0.0090    2.4350 ca        1 6P3     -0.147000
      5 C5          0.0680    0.4550    2.3760 ca        1 6P3     -0.142500
      6 C6         -0.6140    0.4720    1.1600 ca        1 6P3     -0.115000
      7 C12        -0.7160    0.0390   -1.2900 cp        1 6P3      0.401800
      8 N13        -0.0580    0.4030   -2.4260 nb        1 6P3     -0.691000
      9 C14        -0.7570    0.3960   -3.5720 ca        1 6P3      0.404200
     10 C15        -2.1190    0.0340   -3.6740 ca        1 6P3     -0.220900
     11 C16        -2.7760   -0.3420   -2.5020 ca        1 6P3     -0.088000
     12 C17        -2.0750   -0.3410   -1.2940 ca        1 6P3     -0.254300
     13 C21        -2.8300    0.0540   -5.0160 c         1 6P3      0.912200
     14 O22        -4.0500   -0.2740   -5.0370 o         1 6P3     -0.824800
     15 O23        -2.1610    0.3960   -6.0300 o         1 6P3     -0.824800
     16 H1          1.8600   -0.7330   -0.8660 ha        1 6P3      0.142000
     17 H2          3.0680   -0.7640    1.3120 ha        1 6P3      0.118500
     18 H3          1.9230   -0.0030    3.3940 ha        1 6P3      0.115000
     19 H4         -0.4380    0.7980    3.2900 ha        1 6P3      0.118500
     20 H5         -1.6510    0.8350    1.1160 ha        1 6P3      0.142000
     21 H6         -0.2160    0.6970   -4.4900 h4        1 6P3      0.041100
     22 H7         -3.8370   -0.6330   -2.5550 ha        1 6P3      0.156000
     23 H8         -2.5670   -0.6410   -0.3600 ha        1 6P3      0.119000
@<TRIPOS>BOND
     1    1    2 ar  
     2    1    6 ar  
     3    1    7 1   
     4    2    3 ar  
     5    2   16 1   
     6    3    4 ar  
     7    3   17 1   
     8    4    5 ar  
     9    4   18 1   
    10    5    6 ar  
    11    5   19 1   
    12    6   20 1   
    13    7    8 ar  
    14    7   12 ar  
    15    8    9 ar  
    16    9   10 ar  
    17    9   21 1   
    18   10   11 ar  
    19   10   13 1   
    20   11   12 ar  
    21   11   22 1   
    22   12   23 1   
    23   13   14 1   
    24   13   15 1   
@<TRIPOS>SUBSTRUCTURE
     1 6P3         1 TEMP              0 ****  ****    0 ROOT
