@<TRIPOS>MOLECULE
molecule
   28    30     1     0     0
SMALL
bcc


@<TRIPOS>ATOM
      1 C10          0.0000     0.0000     0.0000 cc         1 6P4      -0.348300
      2 C13         -5.2410    -2.0110     0.7800 cc         1 6P4      -0.120000
      3 C15          1.3950     0.0000     0.0000 cd         1 6P4       0.336200
      4 N1          -2.8470    -0.7620     1.3130 na         1 6P4       0.071700
      5 C2          -1.8120     0.0110     1.7900 cd         1 6P4      -0.159300
      6 C3          -3.9610    -0.4320     2.0390 cd         1 6P4      -0.014300
      7 C4          -2.9150    -1.7080     0.3320 cc         1 6P4      -0.083300
      8 C5          -0.4180     0.0060     1.3150 cd         1 6P4       0.001900
      9 C6          -2.3360     0.7980     2.7920 cc         1 6P4       0.108400
     10 N7          -3.6290     0.5060     2.9190 nc         1 6P4      -0.314600
     11 C8          -5.1850    -1.0730     1.7640 cd         1 6P4      -0.086000
     12 C9          -4.0800    -2.3310     0.0570 cd         1 6P4      -0.112300
     13 N11          0.7040     0.0030     2.0920 na         1 6P4      -0.033600
     14 C12         -1.5760     1.8080     3.6110 c3         1 6P4      -0.015900
     15 C14         -4.1360    -3.3740    -1.0290 c3         1 6P4      -0.039800
     16 N16          1.8150     0.0000     1.2400 nc         1 6P4      -0.507800
     17 H1          -0.6390     0.0000    -0.8740 ha         1 6P4       0.155000
     18 H3           2.0260    -0.0030    -0.8800 h4         1 6P4       0.048100
     19 H4          -2.0240    -1.9620    -0.2300 h4         1 6P4       0.171000
     20 H5          -6.0740    -0.8180     2.3280 ha         1 6P4       0.163000
     21 H6           0.7280     0.0050     3.0930 hn         1 6P4       0.333700
     22 H7          -0.9970     2.4450     2.9530 hc         1 6P4       0.052033
     23 H8          -0.9100     1.2930     4.2930 hc         1 6P4       0.052033
     24 H9          -2.2740     2.4130     4.1760 hc         1 6P4       0.052033
     25 H10         -4.1030    -2.8890    -1.9980 hc         1 6P4       0.049033
     26 H11         -3.2890    -4.0430    -0.9320 hc         1 6P4       0.049033
     27 H12         -5.0550    -3.9400    -0.9400 hc         1 6P4       0.049033
     28 H2          -6.1760    -2.5110     0.5580 ha         1 6P4       0.145000
@<TRIPOS>BOND
     1    16    13 1   
     2    16     3 2   
     3    13     8 1   
     4     3     1 1   
     5     8     1 2   
     6     8     5 1   
     7    14     9 1   
     8     5     9 2   
     9     5     4 1   
    10     9    10 1   
    11     4     7 1   
    12     4     6 1   
    13    10     6 2   
    14     7    12 2   
    15     6    11 1   
    16    12    15 1   
    17    12     2 1   
    18    11     2 2   
    19     1    17 1   
    20     2    28 1   
    21     3    18 1   
    22     7    19 1   
    23    11    20 1   
    24    13    21 1   
    25    14    22 1   
    26    14    23 1   
    27    14    24 1   
    28    15    25 1   
    29    15    26 1   
    30    15    27 1   
@<TRIPOS>SUBSTRUCTURE
     1 6P4         1 TEMP              0 ****  ****    0 ROOT
