@<TRIPOS>MOLECULE
molecule
   31    33     1     0     0
SMALL
bcc


@<TRIPOS>ATOM
      1 C10          0.0000     0.0000     0.0000 ca         1 6P5      -0.139500
      2 C11         -5.3810     0.4120    -5.2000 cc         1 6P5       0.335200
      3 C13          1.3960     0.0000     0.0000 ca         1 6P5      -0.092000
      4 C15          0.0070    -0.0110     2.4020 ca         1 6P5      -0.133000
      5 C16         -0.5120    -0.0010    -4.9120 c3         1 6P5      -0.125400
      6 C17          1.3910    -0.0010     2.3940 ca         1 6P5      -0.065300
      7 C18          2.1480     0.0090     3.6970 c3         1 6P5      -0.051800
      8 C1          -2.3330    -0.0020    -3.1920 cd         1 6P5      -0.095400
      9 S2          -2.4970    -0.0010    -1.4370 ss         1 6P5      -0.192300
     10 N3          -0.2030    -0.0010    -2.4640 nc         1 6P5      -0.681000
     11 C4          -0.7420    -0.0010    -1.2780 cd         1 6P5       0.541900
     12 C5          -1.0140    -0.0000    -3.4910 cc         1 6P5       0.389600
     13 C6          -3.4410    -0.0070    -4.1640 cd         1 6P5       0.006700
     14 N7          -3.4940    -0.7190    -5.3280 na         1 6P5      -0.037600
     15 N8          -4.7190    -0.4350    -5.9450 nd         1 6P5      -0.505800
     16 C9          -4.6150     0.7100    -4.0730 cc         1 6P5      -0.331300
     17 C12         -0.6920    -0.0060     1.2130 ca         1 6P5      -0.092000
     18 C14          2.0830     0.0000     1.1950 ca         1 6P5      -0.133000
     19 H1          -6.3610     0.8170    -5.4220 h4         1 6P5       0.049100
     20 H2           1.9380     0.0010    -0.9380 ha         1 6P5       0.144500
     21 H3          -0.5280    -0.0160     3.3430 ha         1 6P5       0.136500
     22 H4           0.5270     0.3080    -4.9280 hc         1 6P5       0.053700
     23 H5          -0.5980    -0.9990    -5.3250 hc         1 6P5       0.053700
     24 H6          -1.1020     0.6870    -5.5040 hc         1 6P5       0.053700
     25 H7           1.5640     0.5230     4.4500 hc         1 6P5       0.046033
     26 H8           2.3320    -1.0100     4.0160 hc         1 6P5       0.046033
     27 H9           3.0930     0.5210     3.5620 hc         1 6P5       0.046033
     28 H10         -2.7860    -1.3350    -5.6760 hn         1 6P5       0.332700
     29 H11         -4.8940     1.3810    -3.2700 ha         1 6P5       0.160000
     30 H12         -1.7750    -0.0100     1.2200 ha         1 6P5       0.144500
     31 H13          3.1660     0.0040     1.1960 ha         1 6P5       0.136500
@<TRIPOS>BOND
     1     5    12 1   
     2    14    15 1   
     3    14    13 1   
     4    15     2 2   
     5    12    10 1   
     6    12     8 2   
     7    10    11 2   
     8    13     8 1   
     9    13    16 2   
    10     8     9 1   
    11     2    16 1   
    12    11     9 1   
    13    11     1 1   
    14    17     1 ar  
    15    17     4 ar  
    16     1     3 ar  
    17     4     6 ar  
    18     3    18 ar  
    19     6    18 ar  
    20     6     7 1   
    21     2    19 1   
    22     3    20 1   
    23     4    21 1   
    24     5    22 1   
    25     5    23 1   
    26     5    24 1   
    27     7    25 1   
    28     7    26 1   
    29     7    27 1   
    30    14    28 1   
    31    16    29 1   
    32    17    30 1   
    33    18    31 1   
@<TRIPOS>SUBSTRUCTURE
     1 6P5         1 TEMP              0 ****  ****    0 ROOT
