@<TRIPOS>MOLECULE
6P6
   33    35     1     0     0
SMALL
bcc


@<TRIPOS>ATOM
      1 C1           0.0000     0.0000     0.0000 ca         1 6P6      -0.081500
      2 C2           1.3810     0.0000     0.0000 ca         1 6P6      -0.116000
      3 C3           2.0740     0.0000     1.2040 ca         1 6P6      -0.016400
      4 C7           5.5770     0.5640     0.1240 ca         1 6P6      -0.300600
      5 C8           6.3270    -0.1790     1.0440 ca         1 6P6      -0.079000
      6 C9           7.6820    -0.2380     0.9250 ca         1 6P6      -0.091000
      7 C10          8.3410     0.4410    -0.1140 ca         1 6P6      -0.162600
      8 C11          7.6200     1.1840    -1.0400 ca         1 6P6      -0.078300
      9 C12          6.2270     1.2530    -0.9290 ca         1 6P6       0.422600
     10 C13          4.1770     1.9950    -1.6730 ca         1 6P6       0.679900
     11 C14          9.8090     0.3620    -0.2220 c          1 6P6       0.618700
     12 C15         10.5960    -0.4430     0.7800 c3         1 6P6      -0.091100
     13 C16         -0.6930     0.0000     1.1970 ca         1 6P6      -0.112000
     14 O1          10.3830     0.9450    -1.1160 o          1 6P6      -0.550100
     15 N1           5.4820     1.9520    -1.7990 nb         1 6P6      -0.667000
     16 N2           3.5250     1.3680    -0.7070 nb         1 6P6      -0.714000
     17 C6           4.1640     0.6480     0.2060 ca         1 6P6       0.536200
     18 N3           3.4710     0.0010     1.2070 nu         1 6P6      -0.276300
     19 C4           1.3750    -0.0000     2.4040 ca         1 6P6      -0.116000
     20 C5          -0.0060    -0.0060     2.3970 ca         1 6P6      -0.081500
     21 H1          -0.5410     0.0030    -0.9390 ha         1 6P6       0.103500
     22 H2           1.9230    -0.0000    -0.9380 ha         1 6P6       0.120500
     23 H3           5.8300    -0.7070     1.8490 ha         1 6P6       0.102000
     24 H4           8.2570    -0.8140     1.6400 ha         1 6P6       0.112000
     25 H5           8.1320     1.7070    -1.8390 ha         1 6P6       0.142000
     26 H6           3.6070     2.5690    -2.3940 h5         1 6P6      -0.003900
     27 H7          10.4270    -0.0470     1.7740 hc         1 6P6       0.026700
     28 H8          11.6510    -0.3840     0.5410 hc         1 6P6       0.026700
     29 H9          10.2750    -1.4770     0.7430 hc         1 6P6       0.026700
     30 H10         -1.7770    -0.0020     1.1940 ha         1 6P6       0.103000
     31 H11          3.9700    -0.4700     1.9360 hn         1 6P6       0.290800
     32 H12          1.9120    -0.0030     3.3450 ha         1 6P6       0.120500
     33 H13         -0.5520    -0.0070     3.3330 ha         1 6P6       0.103500
@<TRIPOS>BOND
     1     1     2 ar  
     2     1    13 ar  
     3     1    21 1   
     4     2     3 ar  
     5     2    22 1   
     6     3    18 1   
     7     3    19 ar  
     8     4     5 ar  
     9     4     9 ar  
    10     4    17 ar  
    11     5     6 ar  
    12     5    23 1   
    13     6     7 ar  
    14     6    24 1   
    15     7     8 ar  
    16     7    11 1   
    17     8     9 ar  
    18     8    25 1   
    19     9    15 ar  
    20    10    15 ar  
    21    10    16 ar  
    22    10    26 1   
    23    11    12 1   
    24    11    14 2   
    25    12    27 1   
    26    12    28 1   
    27    12    29 1   
    28    13    20 ar  
    29    13    30 1   
    30    16    17 ar  
    31    17    18 1   
    32    18    31 1   
    33    19    20 ar  
    34    19    32 1   
    35    20    33 1   
@<TRIPOS>SUBSTRUCTURE
     1 6P6         1 TEMP              0 ****  ****    0 ROOT
