@<TRIPOS>MOLECULE
molecule
   33    35     1     0     0
SMALL
bcc


@<TRIPOS>ATOM
      1 C1           0.0000     0.0000     0.0000 ca         1 6P6      -0.111500
      2 C2           1.3810     0.0000     0.0000 ca         1 6P6      -0.141000
      3 C3           2.0740     0.0000     1.2040 ca         1 6P6       0.144600
      4 C7           5.5770     0.5640     0.1240 ca         1 6P6      -0.304600
      5 C8           6.3270    -0.1790     1.0440 ca         1 6P6      -0.102000
      6 C9           7.6820    -0.2380     0.9250 ca         1 6P6      -0.118000
      7 C10          8.3410     0.4410    -0.1140 ca         1 6P6      -0.150600
      8 C11          7.6200     1.1840    -1.0400 ca         1 6P6      -0.110300
      9 C12          6.2270     1.2530    -0.9290 ca         1 6P6       0.460600
     10 C13          4.1770     1.9950    -1.6730 ca         1 6P6       0.723900
     11 C14          9.8090     0.3620    -0.2220 c          1 6P6       0.571700
     12 C15         10.5960    -0.4430     0.7800 c3         1 6P6      -0.190100
     13 C16         -0.6930     0.0000     1.1970 ca         1 6P6      -0.143000
     14 O1          10.3830     0.9450    -1.1160 o          1 6P6      -0.517100
     15 N1           5.4820     1.9520    -1.7990 nb         1 6P6      -0.762000
     16 N2           3.5250     1.3680    -0.7070 nb         1 6P6      -0.814000
     17 C6           4.1640     0.6480     0.2060 ca         1 6P6       0.738200
     18 N3           3.4710     0.0010     1.2070 nu         1 6P6      -0.752300
     19 C4           1.3750    -0.0000     2.4040 ca         1 6P6      -0.141000
     20 C5          -0.0060    -0.0060     2.3970 ca         1 6P6      -0.111500
     21 H1          -0.5410     0.0030    -0.9390 ha         1 6P6       0.133000
     22 H2           1.9230    -0.0000    -0.9380 ha         1 6P6       0.144000
     23 H3           5.8300    -0.7070     1.8490 ha         1 6P6       0.125000
     24 H4           8.2570    -0.8140     1.6400 ha         1 6P6       0.136000
     25 H5           8.1320     1.7070    -1.8390 ha         1 6P6       0.177000
     26 H6           3.6070     2.5690    -2.3940 h5         1 6P6       0.061100
     27 H7          10.4270    -0.0470     1.7740 hc         1 6P6       0.063033
     28 H8          11.6510    -0.3840     0.5410 hc         1 6P6       0.063033
     29 H9          10.2750    -1.4770     0.7430 hc         1 6P6       0.063033
     30 H10         -1.7770    -0.0020     1.1940 ha         1 6P6       0.130000
     31 H11          3.9700    -0.4700     1.9360 hn         1 6P6       0.458800
     32 H12          1.9120    -0.0030     3.3450 ha         1 6P6       0.144000
     33 H13         -0.5520    -0.0070     3.3330 ha         1 6P6       0.133000
@<TRIPOS>BOND
     1    14    11 2   
     2    12    11 1   
     3    11     7 1   
     4     6     7 ar  
     5     6     5 ar  
     6     7     8 ar  
     7     5     4 ar  
     8     8     9 ar  
     9     4     9 ar  
    10     4    17 ar  
    11     9    15 ar  
    12     2     1 ar  
    13     2     3 ar  
    14    18    17 1   
    15    18     3 1   
    16    17    16 ar  
    17    15    10 ar  
    18     1    13 ar  
    19     3    19 ar  
    20    16    10 ar  
    21    13    20 ar  
    22    19    20 ar  
    23     1    21 1   
    24     2    22 1   
    25     5    23 1   
    26     6    24 1   
    27     8    25 1   
    28    10    26 1   
    29    12    27 1   
    30    12    28 1   
    31    12    29 1   
    32    13    30 1   
    33    18    31 1   
    34    19    32 1   
    35    20    33 1   
@<TRIPOS>SUBSTRUCTURE
     1 6P6         1 TEMP              0 ****  ****    0 ROOT
