@<TRIPOS>MOLECULE
6P8
   35    37     1     0     0
SMALL
bcc


@<TRIPOS>ATOM
      1 C1           0.0000     0.0000     0.0000 ca         1 6P8      -0.082000
      2 C2           1.3810     0.0000     0.0000 ca         1 6P8      -0.116500
      3 C3           2.0740     0.0000     1.2040 ca         1 6P8      -0.011400
      4 C7           5.5750     0.5670     0.1270 ca         1 6P8      -0.329600
      5 C8           6.3250    -0.1820     1.0410 ca         1 6P8      -0.049000
      6 C9           7.6810    -0.2390     0.9160 ca         1 6P8      -0.119000
      7 C10          8.3340     0.4430    -0.1160 ca         1 6P8      -0.048400
      8 C11          7.6190     1.1890    -1.0320 ca         1 6P8      -0.202300
      9 C12          6.2270     1.2610    -0.9210 ca         1 6P8       0.458600
     10 C13          4.1780     2.0120    -1.6620 ca         1 6P8       0.684900
     11 C14         10.3670    -0.7620     0.1350 c          1 6P8       0.561100
     12 C15         11.8740    -0.8050     0.1330 c3         1 6P8      -0.069100
     13 C16         -0.6940     0.0070     1.1960 ca         1 6P8      -0.115000
     14 O1           9.7340    -1.7440     0.4580 o          1 6P8      -0.629100
     15 N3           9.7250     0.3680    -0.2200 ns         1 6P8      -0.042100
     16 N1           5.4830     1.9680    -1.7880 nb         1 6P8      -0.685000
     17 N2           3.5260     1.3800    -0.6990 nb         1 6P8      -0.726000
     18 C6           4.1640     0.6550     0.2100 ca         1 6P8       0.547200
     19 N4           3.4710     0.0000     1.2090 nu         1 6P8      -0.280300
     20 C4           1.3740     0.0020     2.4040 ca         1 6P8      -0.116500
     21 C5          -0.0070     0.0080     2.3960 ca         1 6P8      -0.082000
     22 H1          -0.5410    -0.0000    -0.9390 ha         1 6P8       0.102500
     23 H2           1.9230    -0.0060    -0.9380 ha         1 6P8       0.120500
     24 H3           5.8300    -0.7140     1.8440 ha         1 6P8       0.102000
     25 H4           8.2590    -0.8190     1.6250 ha         1 6P8       0.142000
     26 H5           8.1320     1.7140    -1.8280 ha         1 6P8       0.125000
     27 H6           3.6080     2.5910    -2.3790 h5         1 6P8      -0.006900
     28 H7          12.2110    -1.7050     0.6330 hc         1 6P8       0.025700
     29 H8          12.2340    -0.8030    -0.8890 hc         1 6P8       0.025700
     30 H9          12.2610     0.0640     0.6530 hc         1 6P8       0.025700
     31 H10         -1.7770     0.0100     1.1930 ha         1 6P8       0.103000
     32 H11         10.2460     1.1600    -0.5400 hn         1 6P8       0.172500
     33 H12          3.9700    -0.4600     1.9440 hn         1 6P8       0.291800
     34 H13          1.9110     0.0020     3.3450 ha         1 6P8       0.120500
     35 H14         -0.5530     0.0110     3.3320 ha         1 6P8       0.102500
@<TRIPOS>BOND
     1     1     2 ar  
     2     1    13 ar  
     3     1    22 1   
     4     2     3 ar  
     5     2    23 1   
     6     3    19 1   
     7     3    20 ar  
     8     4     5 ar  
     9     4     9 ar  
    10     4    18 ar  
    11     5     6 ar  
    12     5    24 1   
    13     6     7 ar  
    14     6    25 1   
    15     7     8 ar  
    16     7    15 1   
    17     8     9 ar  
    18     8    26 1   
    19     9    16 ar  
    20    10    16 ar  
    21    10    17 ar  
    22    10    27 1   
    23    11    12 1   
    24    11    14 2   
    25    11    15 1   
    26    12    28 1   
    27    12    29 1   
    28    12    30 1   
    29    13    21 ar  
    30    13    31 1   
    31    15    32 1   
    32    17    18 ar  
    33    18    19 1   
    34    19    33 1   
    35    20    21 ar  
    36    20    34 1   
    37    21    35 1   
@<TRIPOS>SUBSTRUCTURE
     1 6P8         1 TEMP              0 ****  ****    0 ROOT
