@<TRIPOS>MOLECULE
molecule
   35    37     1     0     0
SMALL
bcc


@<TRIPOS>ATOM
      1 C1           0.0000     0.0000     0.0000 ca         1 6P8      -0.112000
      2 C2           1.3810     0.0000     0.0000 ca         1 6P8      -0.142500
      3 C3           2.0740     0.0000     1.2040 ca         1 6P8       0.148600
      4 C7           5.5750     0.5670     0.1270 ca         1 6P8      -0.334600
      5 C8           6.3250    -0.1820     1.0410 ca         1 6P8      -0.077000
      6 C9           7.6810    -0.2390     0.9160 ca         1 6P8      -0.141000
      7 C10          8.3340     0.4430    -0.1160 ca         1 6P8       0.096600
      8 C11          7.6190     1.1890    -1.0320 ca         1 6P8      -0.228300
      9 C12          6.2270     1.2610    -0.9210 ca         1 6P8       0.492600
     10 C13          4.1780     2.0120    -1.6620 ca         1 6P8       0.725900
     11 C14         10.3670    -0.7620     0.1350 c          1 6P8       0.658100
     12 C15         11.8740    -0.8050     0.1330 c3         1 6P8      -0.171100
     13 C16         -0.6940     0.0070     1.1960 ca         1 6P8      -0.145000
     14 O1           9.7340    -1.7440     0.4580 o          1 6P8      -0.588100
     15 N3           9.7250     0.3680    -0.2200 ns         1 6P8      -0.482100
     16 N1           5.4830     1.9680    -1.7880 nb         1 6P8      -0.776000
     17 N2           3.5260     1.3800    -0.6990 nb         1 6P8      -0.825000
     18 C6           4.1640     0.6550     0.2100 ca         1 6P8       0.745200
     19 N4           3.4710     0.0000     1.2090 nu         1 6P8      -0.755300
     20 C4           1.3740     0.0020     2.4040 ca         1 6P8      -0.142500
     21 C5          -0.0070     0.0080     2.3960 ca         1 6P8      -0.112000
     22 H1          -0.5410    -0.0000    -0.9390 ha         1 6P8       0.131500
     23 H2           1.9230    -0.0060    -0.9380 ha         1 6P8       0.144000
     24 H3           5.8300    -0.7140     1.8440 ha         1 6P8       0.127000
     25 H4           8.2590    -0.8190     1.6250 ha         1 6P8       0.163000
     26 H5           8.1320     1.7140    -1.8280 ha         1 6P8       0.153000
     27 H6           3.6080     2.5910    -2.3790 h5         1 6P8       0.057100
     28 H7          12.2110    -1.7050     0.6330 hc         1 6P8       0.065367
     29 H8          12.2340    -0.8030    -0.8890 hc         1 6P8       0.065367
     30 H9          12.2610     0.0640     0.6530 hc         1 6P8       0.065367
     31 H10         -1.7770     0.0100     1.1930 ha         1 6P8       0.129000
     32 H11         10.2460     1.1600    -0.5400 hn         1 6P8       0.328500
     33 H12          3.9700    -0.4600     1.9440 hn         1 6P8       0.459800
     34 H13          1.9110     0.0020     3.3450 ha         1 6P8       0.144000
     35 H14         -0.5530     0.0110     3.3320 ha         1 6P8       0.131500
@<TRIPOS>BOND
     1    12    11 1   
     2    14    11 2   
     3    11    15 1   
     4    15     7 1   
     5     6     7 ar  
     6     6     5 ar  
     7     7     8 ar  
     8     5     4 ar  
     9     8     9 ar  
    10     4     9 ar  
    11     4    18 ar  
    12     9    16 ar  
    13    19    18 1   
    14    19     3 1   
    15    18    17 ar  
    16    20     3 ar  
    17    20    21 ar  
    18    16    10 ar  
    19     3     2 ar  
    20    17    10 ar  
    21    21    13 ar  
    22     2     1 ar  
    23    13     1 ar  
    24     1    22 1   
    25     2    23 1   
    26     5    24 1   
    27     6    25 1   
    28     8    26 1   
    29    10    27 1   
    30    12    28 1   
    31    12    29 1   
    32    12    30 1   
    33    13    31 1   
    34    15    32 1   
    35    19    33 1   
    36    20    34 1   
    37    21    35 1   
@<TRIPOS>SUBSTRUCTURE
     1 6P8         1 TEMP              0 ****  ****    0 ROOT
