@<TRIPOS>MOLECULE
molecule
   94    99     1     0     0
SMALL
bcc


@<TRIPOS>ATOM
      1 C15          0.0000     0.0000     0.0000 c3         1 6P9       0.106000
      2 C12          7.4830     2.4670     0.0600 c3         1 6P9      -0.087900
      3 C11          7.3650     1.1240    -0.6970 c3         1 6P9      -0.087900
      4 C10          6.0770     0.4730    -0.1610 c3         1 6P9       0.144300
      5 C13          6.0270     2.7390     0.5130 c3         1 6P9       0.144300
      6 C14          1.5320     0.0000     0.0000 c3         1 6P9      -0.095900
      7 C02         -1.3470    -2.0240     0.2870 c          1 6P9       0.682700
      8 N03         -0.4750    -1.1350     0.8030 n          1 6P9      -0.476800
      9 C04          0.0180    -1.2820     2.1790 c3         1 6P9       0.106000
     10 C05          1.5500    -1.2690     2.1580 c3         1 6P9      -0.095900
     11 C06          2.0380     0.0000     1.4440 c3         1 6P9      -0.073700
     12 C07          3.5670     0.0320     1.4520 c3         1 6P9      -0.075400
     13 C08          4.0520     1.3550     0.8530 c3         1 6P9       0.151800
     14 N09          5.5210     1.3860     0.8610 n3         1 6P9      -0.706600
     15 C16         -1.9260    -3.0750     1.1470 ca         1 6P9      -0.128600
     16 C17         -2.6590    -2.7220     2.2910 ca         1 6P9       0.155600
     17 N18         -2.8400    -1.3830     2.6180 nu         1 6P9      -0.711000
     18 C19         -3.7480    -0.6060     1.8950 ca         1 6P9       0.188600
     19 C20         -4.4070    -1.1440     0.7960 ca         1 6P9      -0.193000
     20 C21         -5.3050    -0.3730     0.0850 ca         1 6P9      -0.085000
     21 C22         -5.5490     0.9340     0.4650 ca         1 6P9      -0.176000
     22 C23         -4.8950     1.4730     1.5570 ca         1 6P9      -0.085000
     23 C24         -4.0010     0.7060     2.2770 ca         1 6P9      -0.193000
     24 C25         -3.2000    -3.7150     3.0970 ca         1 6P9      -0.132000
     25 C26         -3.0150    -5.0550     2.7660 ca         1 6P9      -0.120600
     26 C27         -3.5930    -6.1130     3.6240 c          1 6P9       0.674700
     27 N28         -4.8170    -5.9500     4.1650 n          1 6P9      -0.484800
     28 C29         -5.3520    -6.9320     5.1180 c3         1 6P9       0.097500
     29 C30         -6.7250    -7.4000     4.6260 c3         1 6P9      -0.094900
     30 C31         -7.6250    -6.1810     4.4070 c3         1 6P9      -0.074700
     31 C32         -9.0090    -6.6460     3.9490 c3         1 6P9      -0.076400
     32 C33         -9.9460    -5.4400     3.8490 c3         1 6P9       0.155800
     33 N34        -11.2740    -5.8870     3.4080 n3         1 6P9      -0.717600
     34 C35        -12.2630    -4.8000     3.5280 c3         1 6P9       0.151800
     35 C36        -12.8850    -4.5930     2.1310 c3         1 6P9      -0.097900
     36 C37        -12.6260    -5.9510     1.4280 c3         1 6P9      -0.097900
     37 C38        -11.2410    -6.3400     2.0020 c3         1 6P9       0.151800
     38 C39         -7.0110    -5.2770     3.3360 c3         1 6P9      -0.094900
     39 C40         -5.6380    -4.7820     3.8180 c3         1 6P9       0.097500
     40 O41         -2.9650    -7.1310     3.8400 o          1 6P9      -0.603100
     41 C42         -2.2860    -5.4010     1.6260 ca         1 6P9      -0.086000
     42 C43         -1.7520    -4.4220     0.8210 ca         1 6P9      -0.090000
     43 H1          -0.3620     0.9250     0.4320 h1         1 6P9       0.056200
     44 H3           8.1370     2.3660     0.9170 hc         1 6P9       0.048450
     45 H4           8.2200     0.4960    -0.4810 hc         1 6P9       0.048450
     46 H5           7.2800     1.3000    -1.7630 hc         1 6P9       0.048450
     47 H6           6.3080    -0.4860     0.2880 h1         1 6P9       0.041200
     48 H7           5.3650     0.3460    -0.9680 h1         1 6P9       0.041200
     49 H8           6.0130     3.3850     1.3820 h1         1 6P9       0.041200
     50 H9           5.4480     3.1640    -0.2980 h1         1 6P9       0.041200
     51 H10          1.8920    -0.8860    -0.5080 hc         1 6P9       0.052450
     52 H11         -0.3430    -0.4580     2.7830 h1         1 6P9       0.056200
     53 H12         -0.3310    -2.2210     2.5900 h1         1 6P9       0.056200
     54 H13          1.9230    -1.2770     3.1750 hc         1 6P9       0.052450
     55 H14          1.9100    -2.1420     1.6280 hc         1 6P9       0.052450
     56 H15          1.6520     0.8720     1.9590 hc         1 6P9       0.050700
     57 H16          3.9250    -0.0560     2.4710 hc         1 6P9       0.051700
     58 H17          3.9490    -0.7930     0.8630 hc         1 6P9       0.051700
     59 H18          3.6700     2.1800     1.4420 h1         1 6P9       0.034700
     60 H19          3.6950     1.4420    -0.1660 h1         1 6P9       0.034700
     61 H21         -2.3660    -0.9930     3.4080 hn         1 6P9       0.448800
     62 H22         -4.2170    -2.1680     0.4980 ha         1 6P9       0.134500
     63 H23         -5.8180    -0.7930    -0.7720 ha         1 6P9       0.130500
     64 H24         -6.2520     1.5380    -0.0970 ha         1 6P9       0.128000
     65 H25         -5.0900     2.4970     1.8530 ha         1 6P9       0.130500
     66 H26         -3.4900     1.1290     3.1330 ha         1 6P9       0.134500
     67 H27         -3.7660    -3.4470     3.9810 ha         1 6P9       0.150000
     68 H28         -5.4540    -6.4710     6.0930 h1         1 6P9       0.060200
     69 H29         -4.6810    -7.7800     5.1800 h1         1 6P9       0.060200
     70 H30         -6.6100    -7.9360     3.6920 hc         1 6P9       0.053700
     71 H31         -7.1720    -8.0490     5.3690 hc         1 6P9       0.053700
     72 H32         -7.7140    -5.6290     5.3350 hc         1 6P9       0.050700
     73 H33         -9.4070    -7.3540     4.6650 hc         1 6P9       0.052200
     74 H34         -8.9270    -7.1210     2.9780 hc         1 6P9       0.052200
     75 H35        -10.0280    -4.9660     4.8190 h1         1 6P9       0.033700
     76 H36         -9.5480    -4.7320     3.1330 h1         1 6P9       0.033700
     77 H38        -11.7720    -3.8900     3.8510 h1         1 6P9       0.043450
     78 H39        -13.0340    -5.0810     4.2360 h1         1 6P9       0.043450
     79 H40        -12.3830    -3.7890     1.6060 hc         1 6P9       0.050200
     80 H41        -13.9480    -4.4020     2.2120 hc         1 6P9       0.050200
     81 H42        -13.3770    -6.6790     1.7060 hc         1 6P9       0.050200
     82 H43        -12.5760    -5.8240     0.3530 hc         1 6P9       0.050200
     83 H44        -11.1040    -7.4140     1.9560 h1         1 6P9       0.043450
     84 H45        -10.4530    -5.8300     1.4610 h1         1 6P9       0.043450
     85 H46         -6.8900    -5.8380     2.4170 hc         1 6P9       0.053700
     86 H47         -7.6610    -4.4280     3.1650 hc         1 6P9       0.053700
     87 H48         -5.7650    -4.1550     4.6920 h1         1 6P9       0.060200
     88 H49         -5.1560    -4.2220     3.0260 h1         1 6P9       0.060200
     89 H50         -2.1460    -6.4450     1.3710 ha         1 6P9       0.157000
     90 H51         -1.1870    -4.6960    -0.0620 ha         1 6P9       0.154000
     91 H52         -0.3620    -0.0990    -1.0160 h1         1 6P9       0.056200
     92 H53          1.8920     0.8860    -0.5080 hc         1 6P9       0.052450
     93 H2           7.8280     3.2510    -0.6050 hc         1 6P9       0.048450
     94 O01         -1.6570    -1.9610    -0.8870 o          1 6P9      -0.601100
@<TRIPOS>BOND
     1     5     2 1   
     2     5    14 1   
     3     2     3 1   
     4    13    14 1   
     5    13    12 1   
     6    14     4 1   
     7     3     4 1   
     8    10    11 1   
     9    10     9 1   
    10    36    37 1   
    11    36    35 1   
    12    12    11 1   
    13    37    33 1   
    14    11     6 1   
    15     9     8 1   
    16    94     7 2   
    17    35    34 1   
    18    33    34 1   
    19    33    32 1   
    20     8     7 1   
    21     8     1 1   
    22     7    15 1   
    23     6     1 1   
    24    32    31 1   
    25    42    15 ar  
    26    42    41 ar  
    27    15    16 ar  
    28    31    30 1   
    29    38    30 1   
    30    38    39 1   
    31    41    25 ar  
    32    16    17 1   
    33    16    24 ar  
    34    30    29 1   
    35    39    27 1   
    36    17    18 1   
    37    25    24 ar  
    38    25    26 1   
    39    19    18 ar  
    40    19    20 ar  
    41    29    28 1   
    42    27    26 1   
    43    27    28 1   
    44    18    23 ar  
    45    26    40 2   
    46    20    21 ar  
    47    23    22 ar  
    48    21    22 ar  
    49     1    43 1   
    50     2    93 1   
    51     2    44 1   
    52     3    45 1   
    53     3    46 1   
    54     4    47 1   
    55     4    48 1   
    56     5    49 1   
    57     5    50 1   
    58     6    51 1   
    59     9    52 1   
    60     9    53 1   
    61    10    54 1   
    62    10    55 1   
    63    11    56 1   
    64    12    57 1   
    65    12    58 1   
    66    13    59 1   
    67    13    60 1   
    68    17    61 1   
    69    19    62 1   
    70    20    63 1   
    71    21    64 1   
    72    22    65 1   
    73    23    66 1   
    74    24    67 1   
    75    28    68 1   
    76    28    69 1   
    77    29    70 1   
    78    29    71 1   
    79    30    72 1   
    80    31    73 1   
    81    31    74 1   
    82    32    75 1   
    83    32    76 1   
    84    34    77 1   
    85    34    78 1   
    86    35    79 1   
    87    35    80 1   
    88    36    81 1   
    89    36    82 1   
    90    37    83 1   
    91    37    84 1   
    92    38    85 1   
    93    38    86 1   
    94    39    87 1   
    95    39    88 1   
    96    41    89 1   
    97    42    90 1   
    98     1    91 1   
    99     6    92 1   
@<TRIPOS>SUBSTRUCTURE
     1 6P9         1 TEMP              0 ****  ****    0 ROOT
