@<TRIPOS>MOLECULE
6P9
   94    99     1     0     0
SMALL
bcc


@<TRIPOS>ATOM
      1 C15          0.0000     0.0000     0.0000 c3         1 6P9       0.041000
      2 C12          7.4830     2.4670     0.0600 c3         1 6P9      -0.028900
      3 C11          7.3650     1.1240    -0.6970 c3         1 6P9      -0.028900
      4 C10          6.0770     0.4730    -0.1610 c3         1 6P9       0.148800
      5 C13          6.0270     2.7390     0.5130 c3         1 6P9       0.148800
      6 C14          1.5320     0.0000     0.0000 c3         1 6P9      -0.043900
      7 C02         -1.3470    -2.0240     0.2870 c          1 6P9       0.612700
      8 N03         -0.4750    -1.1350     0.8030 n          1 6P9      -0.138800
      9 C04          0.0180    -1.2820     2.1790 c3         1 6P9       0.041000
     10 C05          1.5500    -1.2690     2.1580 c3         1 6P9      -0.043900
     11 C06          2.0380     0.0000     1.4440 c3         1 6P9      -0.052700
     12 C07          3.5670     0.0320     1.4520 c3         1 6P9      -0.029400
     13 C08          4.0520     1.3550     0.8530 c3         1 6P9       0.145800
     14 N09          5.5210     1.3860     0.8610 n3         1 6P9      -0.543600
     15 C16         -1.9260    -3.0750     1.1470 ca         1 6P9      -0.129600
     16 C17         -2.6590    -2.7220     2.2910 ca         1 6P9       0.018600
     17 N18         -2.8400    -1.3830     2.6180 nu         1 6P9      -0.287000
     18 C19         -3.7480    -0.6060     1.8950 ca         1 6P9       0.041600
     19 C20         -4.4070    -1.1440     0.7960 ca         1 6P9      -0.175500
     20 C21         -5.3050    -0.3730     0.0850 ca         1 6P9      -0.052500
     21 C22         -5.5490     0.9340     0.4650 ca         1 6P9      -0.153000
     22 C23         -4.8950     1.4730     1.5570 ca         1 6P9      -0.052500
     23 C24         -4.0010     0.7060     2.2770 ca         1 6P9      -0.175500
     24 C25         -3.2000    -3.7150     3.0970 ca         1 6P9      -0.114000
     25 C26         -3.0150    -5.0550     2.7660 ca         1 6P9      -0.125600
     26 C27         -3.5930    -6.1130     3.6240 c          1 6P9       0.606700
     27 N28         -4.8170    -5.9500     4.1650 n          1 6P9      -0.143800
     28 C29         -5.3520    -6.9320     5.1180 c3         1 6P9       0.032500
     29 C30         -6.7250    -7.4000     4.6260 c3         1 6P9      -0.043400
     30 C31         -7.6250    -6.1810     4.4070 c3         1 6P9      -0.053700
     31 C32         -9.0090    -6.6460     3.9490 c3         1 6P9      -0.030400
     32 C33         -9.9460    -5.4400     3.8490 c3         1 6P9       0.145800
     33 N34        -11.2740    -5.8870     3.4080 n3         1 6P9      -0.545600
     34 C35        -12.2630    -4.8000     3.5280 c3         1 6P9       0.150800
     35 C36        -12.8850    -4.5930     2.1310 c3         1 6P9      -0.036400
     36 C37        -12.6260    -5.9510     1.4280 c3         1 6P9      -0.036400
     37 C38        -11.2410    -6.3400     2.0020 c3         1 6P9       0.150800
     38 C39         -7.0110    -5.2770     3.3360 c3         1 6P9      -0.043400
     39 C40         -5.6380    -4.7820     3.8180 c3         1 6P9       0.032500
     40 O41         -2.9650    -7.1310     3.8400 o          1 6P9      -0.644100
     41 C42         -2.2860    -5.4010     1.6260 ca         1 6P9      -0.050000
     42 C43         -1.7520    -4.4220     0.8210 ca         1 6P9      -0.056000
     43 H1          -0.3620     0.9250     0.4320 h1         1 6P9       0.032450
     44 H3           8.1370     2.3660     0.9170 hc         1 6P9       0.018700
     45 H4           8.2200     0.4960    -0.4810 hc         1 6P9       0.018700
     46 H5           7.2800     1.3000    -1.7630 hc         1 6P9       0.018700
     47 H6           6.3080    -0.4860     0.2880 h1         1 6P9       0.012700
     48 H7           5.3650     0.3460    -0.9680 h1         1 6P9       0.012700
     49 H8           6.0130     3.3850     1.3820 h1         1 6P9       0.012700
     50 H9           5.4480     3.1640    -0.2980 h1         1 6P9       0.012700
     51 H10          1.8920    -0.8860    -0.5080 hc         1 6P9       0.026950
     52 H11         -0.3430    -0.4580     2.7830 h1         1 6P9       0.032450
     53 H12         -0.3310    -2.2210     2.5900 h1         1 6P9       0.032450
     54 H13          1.9230    -1.2770     3.1750 hc         1 6P9       0.026950
     55 H14          1.9100    -2.1420     1.6280 hc         1 6P9       0.026950
     56 H15          1.6520     0.8720     1.9590 hc         1 6P9       0.030700
     57 H16          3.9250    -0.0560     2.4710 hc         1 6P9       0.025200
     58 H17          3.9490    -0.7930     0.8630 hc         1 6P9       0.025200
     59 H18          3.6700     2.1800     1.4420 h1         1 6P9       0.012700
     60 H19          3.6950     1.4420    -0.1660 h1         1 6P9       0.012700
     61 H21         -2.3660    -0.9930     3.4080 hn         1 6P9       0.294800
     62 H22         -4.2170    -2.1680     0.4980 ha         1 6P9       0.116000
     63 H23         -5.8180    -0.7930    -0.7720 ha         1 6P9       0.100000
     64 H24         -6.2520     1.5380    -0.0970 ha         1 6P9       0.104000
     65 H25         -5.0900     2.4970     1.8530 ha         1 6P9       0.100000
     66 H26         -3.4900     1.1290     3.1330 ha         1 6P9       0.116000
     67 H27         -3.7660    -3.4470     3.9810 ha         1 6P9       0.127000
     68 H28         -5.4540    -6.4710     6.0930 h1         1 6P9       0.036200
     69 H29         -4.6810    -7.7800     5.1800 h1         1 6P9       0.036200
     70 H30         -6.6100    -7.9360     3.6920 hc         1 6P9       0.027700
     71 H31         -7.1720    -8.0490     5.3690 hc         1 6P9       0.027700
     72 H32         -7.7140    -5.6290     5.3350 hc         1 6P9       0.030700
     73 H33         -9.4070    -7.3540     4.6650 hc         1 6P9       0.026200
     74 H34         -8.9270    -7.1210     2.9780 hc         1 6P9       0.026200
     75 H35        -10.0280    -4.9660     4.8190 h1         1 6P9       0.011700
     76 H36         -9.5480    -4.7320     3.1330 h1         1 6P9       0.011700
     77 H38        -11.7720    -3.8900     3.8510 h1         1 6P9       0.014950
     78 H39        -13.0340    -5.0810     4.2360 h1         1 6P9       0.014950
     79 H40        -12.3830    -3.7890     1.6060 hc         1 6P9       0.020450
     80 H41        -13.9480    -4.4020     2.2120 hc         1 6P9       0.020450
     81 H42        -13.3770    -6.6790     1.7060 hc         1 6P9       0.020450
     82 H43        -12.5760    -5.8240     0.3530 hc         1 6P9       0.020450
     83 H44        -11.1040    -7.4140     1.9560 h1         1 6P9       0.014950
     84 H45        -10.4530    -5.8300     1.4610 h1         1 6P9       0.014950
     85 H46         -6.8900    -5.8380     2.4170 hc         1 6P9       0.027700
     86 H47         -7.6610    -4.4280     3.1650 hc         1 6P9       0.027700
     87 H48         -5.7650    -4.1550     4.6920 h1         1 6P9       0.036200
     88 H49         -5.1560    -4.2220     3.0260 h1         1 6P9       0.036200
     89 H50         -2.1460    -6.4450     1.3710 ha         1 6P9       0.126000
     90 H51         -1.1870    -4.6960    -0.0620 ha         1 6P9       0.121000
     91 H52         -0.3620    -0.0990    -1.0160 h1         1 6P9       0.032450
     92 H53          1.8920     0.8860    -0.5080 hc         1 6P9       0.026950
     93 H2           7.8280     3.2510    -0.6050 hc         1 6P9       0.018700
     94 O01         -1.6570    -1.9610    -0.8870 o          1 6P9      -0.639100
@<TRIPOS>BOND
     1     1     6 1   
     2     1     8 1   
     3     1    43 1   
     4     1    91 1   
     5     2     3 1   
     6     2     5 1   
     7     2    44 1   
     8     2    93 1   
     9     3     4 1   
    10     3    45 1   
    11     3    46 1   
    12     4    14 1   
    13     4    47 1   
    14     4    48 1   
    15     5    14 1   
    16     5    49 1   
    17     5    50 1   
    18     6    11 1   
    19     6    51 1   
    20     6    92 1   
    21     7     8 1   
    22     7    15 1   
    23     7    94 2   
    24     8     9 1   
    25     9    10 1   
    26     9    52 1   
    27     9    53 1   
    28    10    11 1   
    29    10    54 1   
    30    10    55 1   
    31    11    12 1   
    32    11    56 1   
    33    12    13 1   
    34    12    57 1   
    35    12    58 1   
    36    13    14 1   
    37    13    59 1   
    38    13    60 1   
    39    15    16 ar  
    40    15    42 ar  
    41    16    17 1   
    42    16    24 ar  
    43    17    18 1   
    44    17    61 1   
    45    18    19 ar  
    46    18    23 ar  
    47    19    20 ar  
    48    19    62 1   
    49    20    21 ar  
    50    20    63 1   
    51    21    22 ar  
    52    21    64 1   
    53    22    23 ar  
    54    22    65 1   
    55    23    66 1   
    56    24    25 ar  
    57    24    67 1   
    58    25    26 1   
    59    25    41 ar  
    60    26    27 1   
    61    26    40 2   
    62    27    28 1   
    63    27    39 1   
    64    28    29 1   
    65    28    68 1   
    66    28    69 1   
    67    29    30 1   
    68    29    70 1   
    69    29    71 1   
    70    30    31 1   
    71    30    38 1   
    72    30    72 1   
    73    31    32 1   
    74    31    73 1   
    75    31    74 1   
    76    32    33 1   
    77    32    75 1   
    78    32    76 1   
    79    33    34 1   
    80    33    37 1   
    81    34    35 1   
    82    34    77 1   
    83    34    78 1   
    84    35    36 1   
    85    35    79 1   
    86    35    80 1   
    87    36    37 1   
    88    36    81 1   
    89    36    82 1   
    90    37    83 1   
    91    37    84 1   
    92    38    39 1   
    93    38    85 1   
    94    38    86 1   
    95    39    87 1   
    96    39    88 1   
    97    41    42 ar  
    98    41    89 1   
    99    42    90 1   
@<TRIPOS>SUBSTRUCTURE
     1 6P9         1 TEMP              0 ****  ****    0 ROOT
