@<TRIPOS>MOLECULE
molecule
   25    27     1     0     0
SMALL
bcc


@<TRIPOS>ATOM
      1 N1           0.0000     0.0000     0.0000 nb         1 6PB      -0.735000
      2 C2           1.3250     0.0000     0.0000 ca         1 6PB       0.925900
      3 N2           1.9940     0.0020    -1.2150 nv         1 6PB      -1.051500
      4 N3           2.0330     0.0000     1.1170 nb         1 6PB      -0.701000
      5 C4           1.4260    -0.0010     2.3050 ca         1 6PB       0.628300
      6 C5           0.0200    -0.0020     2.3460 ca         1 6PB      -0.354800
      7 C6          -0.6870    -0.0010     1.1410 cp         1 6PB       0.541800
      8 N7          -0.3240    -0.0020     3.6820 na         1 6PB      -0.253300
      9 C8           0.8290    -0.0020     4.3900 cc         1 6PB       0.458700
     10 N9           1.8530    -0.0010     3.5830 nd         1 6PB      -0.673700
     11 C61         -2.1700    -0.0010     1.1330 cp         1 6PB      -0.148500
     12 C62         -2.8740    -0.6890     2.1190 ca         1 6PB      -0.106000
     13 C63         -4.2550    -0.6850     2.1060 ca         1 6PB      -0.021900
     14 Br63        -5.2140    -1.6180     3.4440 br         1 6PB      -0.091100
     15 C64         -4.9390    -0.0010     1.1160 ca         1 6PB      -0.091000
     16 C65         -4.2440     0.6820     0.1350 ca         1 6PB      -0.129000
     17 C66         -2.8640     0.6910     0.1410 ca         1 6PB      -0.072000
     18 HN2          2.3530     0.8590    -1.5870 hn         1 6PB       0.445800
     19 HN2A         2.1090    -0.8520    -1.7240 hn         1 6PB       0.445800
     20 H8           0.8920    -0.0030     5.4720 h5         1 6PB       0.082800
     21 H62         -2.3410    -1.2990     2.8390 ha         1 6PB       0.141000
     22 H64         -6.0220    -0.0030     1.1080 ha         1 6PB       0.147000
     23 H65         -4.7840     1.2180    -0.6370 ha         1 6PB       0.143000
     24 H66         -2.3210     1.2270    -0.6280 ha         1 6PB       0.157000
     25 HN7         -1.2510    -0.0030     4.0570 hn         1 6PB       0.312700
@<TRIPOS>BOND
     1     7     1 ar
     2     1     2 ar
     3     4     2 ar
     4     2     3 1
     5     3    18 1
     6     3    19 1
     7     5     4 ar
     8    10     5 1
     9     6     5 ar
    10     8     6 1
    11     6     7 ar
    12    11     7 1
    13     9     8 1
    14     9    10 2
    15     9    20 1
    16    12    11 ar
    17    11    17 ar
    18    12    13 ar
    19    12    21 1
    20    14    13 1
    21    13    15 ar
    22    15    16 ar
    23    15    22 1
    24    17    16 ar
    25    16    23 1
    26    17    24 1
    27     8    25 1
@<TRIPOS>SUBSTRUCTURE
     1 6PB         1 TEMP              0 ****  ****    0 ROOT
