@<TRIPOS>MOLECULE
molecule
   13    13     1     0     0
SMALL
bcc


@<TRIPOS>ATOM
      1 C1           0.0000     0.0000     0.0000 ca         1 6PC       0.412800
      2 C3          -0.0610    -0.0000     2.3070 ca         1 6PC       0.390200
      3 C4           1.3230     0.0000     2.3810 ca         1 6PC      -0.295300
      4 C2          -0.7080     0.0220    -1.3010 c          1 6PC       0.791100
      5 C5           2.0670     0.0000     1.2110 ca         1 6PC      -0.126000
      6 C6           1.3930     0.0000     0.0000 ca         1 6PC      -0.229300
      7 O1          -0.1860     0.5990    -2.2910 o          1 6PC      -0.820300
      8 O2          -1.8390    -0.5190    -1.4110 o          1 6PC      -0.820300
      9 N2          -0.6750     0.0060     1.1430 nb         1 6PC      -0.662000
     10 H3          -0.6510     0.0020     3.2150 h4         1 6PC      -0.005900
     11 H4           1.8140     0.0240     3.3460 ha         1 6PC       0.104000
     12 H5           3.1480    -0.0500     1.2560 ha         1 6PC       0.108000
     13 H6           1.9350    -0.0010    -0.9380 ha         1 6PC       0.151000
@<TRIPOS>BOND
     1     1     4 1   
     2     1     6 ar  
     3     1     9 ar  
     4     2     3 ar  
     5     2     9 ar  
     6     2    10 1   
     7     3     5 ar  
     8     3    11 1   
     9     4     7 1   
    10     4     8 1   
    11     5     6 ar  
    12     5    12 1   
    13     6    13 1   
@<TRIPOS>SUBSTRUCTURE
     1 6PC         1 TEMP              0 ****  ****    0 ROOT
