@<TRIPOS>MOLECULE
6PC
   13    13     1     0     0
SMALL
bcc


@<TRIPOS>ATOM
      1 C1         -0.0260    0.1060    0.0500 ca        1 6PC      0.392800
      2 C3         -0.1450    0.2190    2.3510 ca        1 6PC      0.378200
      3 C4          1.2170   -0.0720    2.5100 ca        1 6PC     -0.297300
      4 C2         -0.6660    0.1930   -1.3550 c         1 6PC      0.824100
      5 C5          1.9800   -0.2830    1.3560 ca        1 6PC     -0.116000
      6 C6          1.3590   -0.1940    0.1160 ca        1 6PC     -0.241300
      7 O1         -0.6360    1.3140   -1.9230 o         1 6PC     -0.811800
      8 O2         -1.1210   -0.8760   -1.8370 o         1 6PC     -0.811800
      9 N2         -0.7690    0.3100    1.1570 nb        1 6PC     -0.662000
     10 H3         -0.7860    0.3930    3.2330 h4        1 6PC     -0.010900
     11 H4          1.6670   -0.1330    3.5060 ha        1 6PC      0.110000
     12 H5          3.0510   -0.5140    1.4350 ha        1 6PC      0.106000
     13 H6          1.9140   -0.3500   -0.8180 ha        1 6PC      0.139000
@<TRIPOS>BOND
     1    1    4 1   
     2    1    6 ar  
     3    1    9 ar  
     4    2    3 ar  
     5    2    9 ar  
     6    2   10 1   
     7    3    5 ar  
     8    3   11 1   
     9    4    7 1   
    10    4    8 1   
    11    5    6 ar  
    12    5   12 1   
    13    6   13 1   
@<TRIPOS>SUBSTRUCTURE
     1 6PC         1 TEMP              0 ****  ****    0 ROOT
