@<TRIPOS>MOLECULE
molecule
  110   116     1     0     0
SMALL
bcc


@<TRIPOS>ATOM
      1 C13          0.0000     0.0000     0.0000 c3         1 6PD      -0.073700
      2 C15         -0.0280     1.2810     2.1450 c3         1 6PD       0.096500
      3 C17         -2.0340    -0.1600    -1.4420 c3         1 6PD       0.148800
      4 C20         -3.2420    -1.5960    -4.6330 c3         1 6PD      -0.084900
      5 C21         -4.3990    -0.6520    -4.2470 c3         1 6PD      -0.084900
      6 C22         -4.0030    -0.0740    -2.8720 c3         1 6PD       0.140800
      7 C26          6.9270    -0.0320     5.2560 ca         1 6PD      -0.151500
      8 C28          8.3070    -1.4950     6.5600 ca         1 6PD       0.109100
      9 O01          8.6110     2.1590     3.3710 o          1 6PD      -0.593100
     10 C03          6.4510     1.7370     2.5900 ca         1 6PD      -0.126600
     11 C04          5.6830     0.5880     2.8340 ca         1 6PD       0.160600
     12 C05          4.3000     0.6850     2.9070 ca         1 6PD      -0.136000
     13 C06          3.6810     1.9200     2.7360 ca         1 6PD      -0.120600
     14 C07          4.4490     3.0620     2.4930 ca         1 6PD      -0.089000
     15 C08          5.8210     2.9740     2.4260 ca         1 6PD      -0.092000
     16 C09          2.2060     2.0250     2.8120 c          1 6PD       0.675700
     17 N10          1.4340     1.1350     2.1580 n          1 6PD      -0.484800
     18 C11          2.0360     0.0000     1.4460 c3         1 6PD       0.096500
     19 C12          1.5300     0.0000     0.0000 c3         1 6PD      -0.095400
     20 C14         -0.5120     1.2660     0.6910 c3         1 6PD      -0.095400
     21 C16         -0.5100    -0.0340    -1.4430 c3         1 6PD      -0.074400
     22 N18         -2.5230    -0.1940    -2.8270 n3         1 6PD      -0.698600
     23 C19         -2.2450    -1.5090    -3.4580 c3         1 6PD       0.140800
     24 O23          1.6930     2.9120     3.4640 o          1 6PD      -0.598100
     25 C25          6.9790    -0.9280     4.1970 ca         1 6PD       0.149600
     26 C27          7.5910    -0.3140     6.4330 ca         1 6PD      -0.140500
     27 C29          8.3640    -2.3890     5.5010 ca         1 6PD      -0.140500
     28 C30          7.7000    -2.1090     4.3230 ca         1 6PD      -0.151500
     29 C32          9.6790    -3.0080     7.7800 c3         1 6PD       0.359600
     30 N33         10.9700    -2.8580     7.0950 n3         1 6PD      -0.731600
     31 C34         12.0100    -2.3500     8.0260 c3         1 6PD       0.150300
     32 C35         13.3350    -2.7520     7.3300 c3         1 6PD      -0.088400
     33 C36         13.0010    -4.1340     6.7240 c3         1 6PD      -0.088400
     34 C37         11.4670    -4.1640     6.6090 c3         1 6PD       0.150300
     35 N38          8.5010     0.9800     1.4910 n          1 6PD      -0.478800
     36 C39          7.6830     0.2600     0.5050 c3         1 6PD       0.106500
     37 C40          8.0650     0.7420    -0.8980 c3         1 6PD      -0.097400
     38 C41          9.5750     0.5800    -1.0950 c3         1 6PD      -0.073700
     39 C42         10.3190     1.4380    -0.0700 c3         1 6PD      -0.097400
     40 C43          9.9630     0.9690     1.3390 c3         1 6PD       0.106500
     41 C44          9.9540     1.0270    -2.5080 c3         1 6PD      -0.075400
     42 C45         11.4400     0.7490    -2.7480 c3         1 6PD       0.151800
     43 N46         11.8060     1.1780    -4.1050 n3         1 6PD      -0.706600
     44 C47         11.8480     2.6590    -4.2000 c3         1 6PD       0.144300
     45 C48         12.7250     2.9090    -5.4530 c3         1 6PD      -0.088400
     46 C49         13.7940     1.7970    -5.3540 c3         1 6PD      -0.088400
     47 C50         13.1630     0.7120    -4.4600 c3         1 6PD       0.144300
     48 H1          -0.3590    -0.8710     0.5350 hc         1 6PD       0.049700
     49 H2          -0.3030     2.2210     2.6080 h1         1 6PD       0.059700
     50 H3          -0.4800     0.4580     2.6850 h1         1 6PD       0.059700
     51 H4          -2.4670     0.6900    -0.9280 h1         1 6PD       0.035200
     52 H5          -2.3210    -1.0730    -0.9350 h1         1 6PD       0.035200
     53 H6          -2.7720    -1.2590    -5.5490 hc         1 6PD       0.047700
     54 H7          -3.6070    -2.6110    -4.7410 hc         1 6PD       0.047700
     55 H8          -5.3260    -1.2070    -4.1680 hc         1 6PD       0.047700
     56 H9          -4.4920     0.1450    -4.9760 hc         1 6PD       0.047700
     57 H10         -4.4520    -0.6560    -2.0760 h1         1 6PD       0.040200
     58 H11         -4.2990     0.9660    -2.8010 h1         1 6PD       0.040200
     59 H12          6.3680     0.8910     5.1580 ha         1 6PD       0.135500
     60 H13          3.7030    -0.1990     3.0950 ha         1 6PD       0.150000
     61 H14          3.9630     4.0210     2.3630 ha         1 6PD       0.154000
     62 H15          6.4120     3.8620     2.2370 ha         1 6PD       0.151000
     63 H16          1.7490    -0.9250     1.9300 h1         1 6PD       0.059700
     64 H17          3.1150     0.1000     1.4520 h1         1 6PD       0.059700
     65 H18          1.8910     0.8860    -0.5080 hc         1 6PD       0.052450
     66 H19          1.8900    -0.8860    -0.5080 hc         1 6PD       0.052450
     67 H20         -0.1290     2.1380     0.1740 hc         1 6PD       0.052450
     68 H21         -1.5950     1.2740     0.6710 hc         1 6PD       0.052450
     69 H22         -0.2230     0.8800    -1.9490 hc         1 6PD       0.051200
     70 H23         -0.0780    -0.8830    -1.9580 hc         1 6PD       0.051200
     71 H25         -2.4250    -2.3110    -2.7520 h1         1 6PD       0.040200
     72 H26         -1.2270    -1.5430    -3.8260 h1         1 6PD       0.040200
     73 H27          6.2190    -1.3480     2.2980 hn         1 6PD       0.442800
     74 H28          7.5490     0.3850     7.2600 ha         1 6PD       0.141500
     75 H29          8.9250    -3.3110     5.5990 ha         1 6PD       0.141500
     76 H30          7.7430    -2.8080     3.4970 ha         1 6PD       0.135500
     77 H31          9.8480    -3.2760     8.8160 h2         1 6PD       0.050700
     78 H32          9.1010    -3.7850     7.2950 h2         1 6PD       0.050700
     79 H34         11.9250    -2.8340     8.9920 h1         1 6PD       0.043200
     80 H35         11.9420    -1.2730     8.1230 h1         1 6PD       0.043200
     81 H36         13.5860    -2.0440     6.5490 hc         1 6PD       0.050200
     82 H37         14.1360    -2.8360     8.0540 hc         1 6PD       0.050200
     83 H38         13.4520    -4.2320     5.7430 hc         1 6PD       0.050200
     84 H39         13.3430    -4.9240     7.3820 hc         1 6PD       0.050200
     85 H40         11.0670    -4.9610     7.2240 h1         1 6PD       0.043200
     86 H41         11.1770    -4.3060     5.5750 h1         1 6PD       0.043200
     87 H42          6.6340     0.4650     0.6860 h1         1 6PD       0.056450
     88 H43          7.8700    -0.8040     0.5870 h1         1 6PD       0.056450
     89 H44          7.7980     1.7870    -1.0060 hc         1 6PD       0.051450
     90 H45          7.5390     0.1510    -1.6380 hc         1 6PD       0.051450
     91 H46          9.8440    -0.4600    -0.9560 hc         1 6PD       0.051700
     92 H47         10.0280     2.4740    -0.1890 hc         1 6PD       0.051450
     93 H48         11.3870     1.3370    -0.2240 hc         1 6PD       0.051450
     94 H49         10.3350    -0.0370     1.4900 h1         1 6PD       0.056450
     95 H50         10.4070     1.6390     2.0660 h1         1 6PD       0.056450
     96 H51          9.7630     2.0880    -2.6140 hc         1 6PD       0.051200
     97 H52          9.3630     0.4790    -3.2310 hc         1 6PD       0.051200
     98 H53         11.6300    -0.3120    -2.6420 h1         1 6PD       0.035200
     99 H54         12.0310     1.2960    -2.0250 h1         1 6PD       0.035200
    100 H56         10.8520     3.0600    -4.3470 h1         1 6PD       0.040950
    101 H57         12.3130     3.0850    -3.3190 h1         1 6PD       0.040950
    102 H58         12.1390     2.7970    -6.3570 hc         1 6PD       0.048700
    103 H59         13.1870     3.8880    -5.4060 hc         1 6PD       0.048700
    104 H60         14.0080     1.3950    -6.3370 hc         1 6PD       0.048700
    105 H61         14.6950     2.1830    -4.8950 hc         1 6PD       0.048700
    106 H62         13.1000    -0.2230    -5.0050 h1         1 6PD       0.040950
    107 H63         13.7560     0.5840    -3.5630 h1         1 6PD       0.040950
    108 N24          6.3060    -0.6430     3.0030 nu         1 6PD      -0.718000
    109 C02          7.9230     1.6410     2.5120 c          1 6PD       0.682700
    110 O31          8.9620    -1.7730     7.7180 os         1 6PD      -0.320900
@<TRIPOS>BOND
     1     9   109 2   
     2    36    35 1   
     3    36    37 1   
     4   109    35 1   
     5   109    10 1   
     6    15    14 ar  
     7    15    10 ar  
     8    35    40 1   
     9    14    13 ar  
    10    37    38 1   
    11    10    11 ar  
    12    40    39 1   
    13    13    12 ar  
    14    13    16 1   
    15    11    12 ar  
    16    11   108 1   
    17    38    39 1   
    18    38    41 1   
    19     2    17 1   
    20     2    20 1   
    21    41    42 1   
    22    16    17 1   
    23    16    24 2   
    24    17    18 1   
    25   108    25 1   
    26    44    45 1   
    27    44    43 1   
    28    20     1 1   
    29    18    19 1   
    30    45    46 1   
    31    42    43 1   
    32    25    28 ar  
    33    25     7 ar  
    34     1    19 1   
    35     1    21 1   
    36    43    47 1   
    37    28    27 ar  
    38    23     4 1   
    39    23    22 1   
    40     4     5 1   
    41     7    26 ar  
    42    46    47 1   
    43    21     3 1   
    44    22     3 1   
    45    22     6 1   
    46    27     8 ar  
    47    31    32 1   
    48    31    30 1   
    49    32    33 1   
    50     5     6 1   
    51    26     8 ar  
    52     8   110 1   
    53    33    34 1   
    54    30    29 1   
    55    30    34 1   
    56    29   110 1   
    57     1    48 1   
    58     2    49 1   
    59     2    50 1   
    60     3    51 1   
    61     3    52 1   
    62     4    53 1   
    63     4    54 1   
    64     5    55 1   
    65     5    56 1   
    66     6    57 1   
    67     6    58 1   
    68     7    59 1   
    69    12    60 1   
    70    14    61 1   
    71    15    62 1   
    72    18    63 1   
    73    18    64 1   
    74    19    65 1   
    75    19    66 1   
    76    20    67 1   
    77    20    68 1   
    78    21    69 1   
    79    21    70 1   
    80    23    71 1   
    81    23    72 1   
    82   108    73 1   
    83    26    74 1   
    84    27    75 1   
    85    28    76 1   
    86    29    77 1   
    87    29    78 1   
    88    31    79 1   
    89    31    80 1   
    90    32    81 1   
    91    32    82 1   
    92    33    83 1   
    93    33    84 1   
    94    34    85 1   
    95    34    86 1   
    96    36    87 1   
    97    36    88 1   
    98    37    89 1   
    99    37    90 1   
   100    38    91 1   
   101    39    92 1   
   102    39    93 1   
   103    40    94 1   
   104    40    95 1   
   105    41    96 1   
   106    41    97 1   
   107    42    98 1   
   108    42    99 1   
   109    44   100 1   
   110    44   101 1   
   111    45   102 1   
   112    45   103 1   
   113    46   104 1   
   114    46   105 1   
   115    47   106 1   
   116    47   107 1   
@<TRIPOS>SUBSTRUCTURE
     1 6PD         1 TEMP              0 ****  ****    0 ROOT
