@<TRIPOS>MOLECULE
6PD
  110   116     1     0     0
SMALL
bcc


@<TRIPOS>ATOM
      1 C13          0.0000     0.0000     0.0000 c3         1 6PD      -0.053700
      2 C15         -0.0280     1.2810     2.1450 c3         1 6PD       0.030500
      3 C17         -2.0340    -0.1600    -1.4420 c3         1 6PD       0.145800
      4 C20         -3.2420    -1.5960    -4.6330 c3         1 6PD      -0.026900
      5 C21         -4.3990    -0.6520    -4.2470 c3         1 6PD      -0.026900
      6 C22         -4.0030    -0.0740    -2.8720 c3         1 6PD       0.148300
      7 C26          6.9270    -0.0320     5.2560 ca         1 6PD      -0.124500
      8 C28          8.3070    -1.4950     6.5600 ca         1 6PD       0.119100
      9 O01          8.6110     2.1590     3.3710 o          1 6PD      -0.631100
     10 C03          6.4510     1.7370     2.5900 ca         1 6PD      -0.128600
     11 C04          5.6830     0.5880     2.8340 ca         1 6PD       0.025600
     12 C05          4.3000     0.6850     2.9070 ca         1 6PD      -0.116000
     13 C06          3.6810     1.9200     2.7360 ca         1 6PD      -0.125600
     14 C07          4.4490     3.0620     2.4930 ca         1 6PD      -0.054000
     15 C08          5.8210     2.9740     2.4260 ca         1 6PD      -0.058000
     16 C09          2.2060     2.0250     2.8120 c          1 6PD       0.608700
     17 N10          1.4340     1.1350     2.1580 n          1 6PD      -0.143800
     18 C11          2.0360     0.0000     1.4460 c3         1 6PD       0.030500
     19 C12          1.5300     0.0000     0.0000 c3         1 6PD      -0.043400
     20 C14         -0.5120     1.2660     0.6910 c3         1 6PD      -0.043400
     21 C16         -0.5100    -0.0340    -1.4430 c3         1 6PD      -0.028400
     22 N18         -2.5230    -0.1940    -2.8270 n3         1 6PD      -0.540600
     23 C19         -2.2450    -1.5090    -3.4580 c3         1 6PD       0.148300
     24 O23          1.6930     2.9120     3.4640 o          1 6PD      -0.639100
     25 C25          6.9790    -0.9280     4.1970 ca         1 6PD      -0.000400
     26 C27          7.5910    -0.3140     6.4330 ca         1 6PD      -0.126500
     27 C29          8.3640    -2.3890     5.5010 ca         1 6PD      -0.126500
     28 C30          7.7000    -2.1090     4.3230 ca         1 6PD      -0.124500
     29 C32          9.6790    -3.0080     7.7800 c3         1 6PD       0.364600
     30 N33         10.9700    -2.8580     7.0950 n3         1 6PD      -0.566600
     31 C34         12.0100    -2.3500     8.0260 c3         1 6PD       0.154800
     32 C35         13.3350    -2.7520     7.3300 c3         1 6PD      -0.029400
     33 C36         13.0010    -4.1340     6.7240 c3         1 6PD      -0.029400
     34 C37         11.4670    -4.1640     6.6090 c3         1 6PD       0.154800
     35 N38          8.5010     0.9800     1.4910 n          1 6PD      -0.139800
     36 C39          7.6830     0.2600     0.5050 c3         1 6PD       0.042500
     37 C40          8.0650     0.7420    -0.8980 c3         1 6PD      -0.045400
     38 C41          9.5750     0.5800    -1.0950 c3         1 6PD      -0.052700
     39 C42         10.3190     1.4380    -0.0700 c3         1 6PD      -0.045400
     40 C43          9.9630     0.9690     1.3390 c3         1 6PD       0.042500
     41 C44          9.9540     1.0270    -2.5080 c3         1 6PD      -0.029400
     42 C45         11.4400     0.7490    -2.7480 c3         1 6PD       0.145800
     43 N46         11.8060     1.1780    -4.1050 n3         1 6PD      -0.543600
     44 C47         11.8480     2.6590    -4.2000 c3         1 6PD       0.148800
     45 C48         12.7250     2.9090    -5.4530 c3         1 6PD      -0.028900
     46 C49         13.7940     1.7970    -5.3540 c3         1 6PD      -0.028900
     47 C50         13.1630     0.7120    -4.4600 c3         1 6PD       0.148800
     48 H1          -0.3590    -0.8710     0.5350 hc         1 6PD       0.029700
     49 H2          -0.3030     2.2210     2.6080 h1         1 6PD       0.036200
     50 H3          -0.4800     0.4580     2.6850 h1         1 6PD       0.036200
     51 H4          -2.4670     0.6900    -0.9280 h1         1 6PD       0.013200
     52 H5          -2.3210    -1.0730    -0.9350 h1         1 6PD       0.013200
     53 H6          -2.7720    -1.2590    -5.5490 hc         1 6PD       0.017700
     54 H7          -3.6070    -2.6110    -4.7410 hc         1 6PD       0.017700
     55 H8          -5.3260    -1.2070    -4.1680 hc         1 6PD       0.017700
     56 H9          -4.4920     0.1450    -4.9760 hc         1 6PD       0.017700
     57 H10         -4.4520    -0.6560    -2.0760 h1         1 6PD       0.012450
     58 H11         -4.2990     0.9660    -2.8010 h1         1 6PD       0.012450
     59 H12          6.3680     0.8910     5.1580 ha         1 6PD       0.112500
     60 H13          3.7030    -0.1990     3.0950 ha         1 6PD       0.127000
     61 H14          3.9630     4.0210     2.3630 ha         1 6PD       0.123000
     62 H15          6.4120     3.8620     2.2370 ha         1 6PD       0.118000
     63 H16          1.7490    -0.9250     1.9300 h1         1 6PD       0.036200
     64 H17          3.1150     0.1000     1.4520 h1         1 6PD       0.036200
     65 H18          1.8910     0.8860    -0.5080 hc         1 6PD       0.026450
     66 H19          1.8900    -0.8860    -0.5080 hc         1 6PD       0.026450
     67 H20         -0.1290     2.1380     0.1740 hc         1 6PD       0.026450
     68 H21         -1.5950     1.2740     0.6710 hc         1 6PD       0.026450
     69 H22         -0.2230     0.8800    -1.9490 hc         1 6PD       0.025200
     70 H23         -0.0780    -0.8830    -1.9580 hc         1 6PD       0.025200
     71 H25         -2.4250    -2.3110    -2.7520 h1         1 6PD       0.012450
     72 H26         -1.2270    -1.5430    -3.8260 h1         1 6PD       0.012450
     73 H27          6.2190    -1.3480     2.2980 hn         1 6PD       0.288800
     74 H28          7.5490     0.3850     7.2600 ha         1 6PD       0.117500
     75 H29          8.9250    -3.3110     5.5990 ha         1 6PD       0.117500
     76 H30          7.7430    -2.8080     3.4970 ha         1 6PD       0.112500
     77 H31          9.8480    -3.2760     8.8160 h2         1 6PD       0.015700
     78 H32          9.1010    -3.7850     7.2950 h2         1 6PD       0.015700
     79 H34         11.9250    -2.8340     8.9920 h1         1 6PD       0.013950
     80 H35         11.9420    -1.2730     8.1230 h1         1 6PD       0.013950
     81 H36         13.5860    -2.0440     6.5490 hc         1 6PD       0.019450
     82 H37         14.1360    -2.8360     8.0540 hc         1 6PD       0.019450
     83 H38         13.4520    -4.2320     5.7430 hc         1 6PD       0.019450
     84 H39         13.3430    -4.9240     7.3820 hc         1 6PD       0.019450
     85 H40         11.0670    -4.9610     7.2240 h1         1 6PD       0.013950
     86 H41         11.1770    -4.3060     5.5750 h1         1 6PD       0.013950
     87 H42          6.6340     0.4650     0.6860 h1         1 6PD       0.032200
     88 H43          7.8700    -0.8040     0.5870 h1         1 6PD       0.032200
     89 H44          7.7980     1.7870    -1.0060 hc         1 6PD       0.025700
     90 H45          7.5390     0.1510    -1.6380 hc         1 6PD       0.025700
     91 H46          9.8440    -0.4600    -0.9560 hc         1 6PD       0.031700
     92 H47         10.0280     2.4740    -0.1890 hc         1 6PD       0.025700
     93 H48         11.3870     1.3370    -0.2240 hc         1 6PD       0.025700
     94 H49         10.3350    -0.0370     1.4900 h1         1 6PD       0.032200
     95 H50         10.4070     1.6390     2.0660 h1         1 6PD       0.032200
     96 H51          9.7630     2.0880    -2.6140 hc         1 6PD       0.025200
     97 H52          9.3630     0.4790    -3.2310 hc         1 6PD       0.025200
     98 H53         11.6300    -0.3120    -2.6420 h1         1 6PD       0.013200
     99 H54         12.0310     1.2960    -2.0250 h1         1 6PD       0.013200
    100 H56         10.8520     3.0600    -4.3470 h1         1 6PD       0.012950
    101 H57         12.3130     3.0850    -3.3190 h1         1 6PD       0.012950
    102 H58         12.1390     2.7970    -6.3570 hc         1 6PD       0.018700
    103 H59         13.1870     3.8880    -5.4060 hc         1 6PD       0.018700
    104 H60         14.0080     1.3950    -6.3370 hc         1 6PD       0.018700
    105 H61         14.6950     2.1830    -4.8950 hc         1 6PD       0.018700
    106 H62         13.1000    -0.2230    -5.0050 h1         1 6PD       0.012950
    107 H63         13.7560     0.5840    -3.5630 h1         1 6PD       0.012950
    108 N24          6.3060    -0.6430     3.0030 nu         1 6PD      -0.295000
    109 C02          7.9230     1.6410     2.5120 c          1 6PD       0.611700
    110 O31          8.9620    -1.7730     7.7180 os         1 6PD      -0.298900
@<TRIPOS>BOND
     1     1    19 1   
     2     1    20 1   
     3     1    21 1   
     4     1    48 1   
     5     2    17 1   
     6     2    20 1   
     7     2    49 1   
     8     2    50 1   
     9     3    21 1   
    10     3    22 1   
    11     3    51 1   
    12     3    52 1   
    13     4     5 1   
    14     4    23 1   
    15     4    53 1   
    16     4    54 1   
    17     5     6 1   
    18     5    55 1   
    19     5    56 1   
    20     6    22 1   
    21     6    57 1   
    22     6    58 1   
    23     7    25 ar  
    24     7    26 ar  
    25     7    59 1   
    26     8    26 ar  
    27     8    27 ar  
    28     8   110 1   
    29     9   109 2   
    30    10    11 ar  
    31    10    15 ar  
    32    10   109 1   
    33    11    12 ar  
    34    11   108 1   
    35    12    13 ar  
    36    12    60 1   
    37    13    14 ar  
    38    13    16 1   
    39    14    15 ar  
    40    14    61 1   
    41    15    62 1   
    42    16    17 1   
    43    16    24 2   
    44    17    18 1   
    45    18    19 1   
    46    18    63 1   
    47    18    64 1   
    48    19    65 1   
    49    19    66 1   
    50    20    67 1   
    51    20    68 1   
    52    21    69 1   
    53    21    70 1   
    54    22    23 1   
    55    23    71 1   
    56    23    72 1   
    57    25    28 ar  
    58    25   108 1   
    59    26    74 1   
    60    27    28 ar  
    61    27    75 1   
    62    28    76 1   
    63    29    30 1   
    64    29    77 1   
    65    29    78 1   
    66    29   110 1   
    67    30    31 1   
    68    30    34 1   
    69    31    32 1   
    70    31    79 1   
    71    31    80 1   
    72    32    33 1   
    73    32    81 1   
    74    32    82 1   
    75    33    34 1   
    76    33    83 1   
    77    33    84 1   
    78    34    85 1   
    79    34    86 1   
    80    35    36 1   
    81    35    40 1   
    82    35   109 1   
    83    36    37 1   
    84    36    87 1   
    85    36    88 1   
    86    37    38 1   
    87    37    89 1   
    88    37    90 1   
    89    38    39 1   
    90    38    41 1   
    91    38    91 1   
    92    39    40 1   
    93    39    92 1   
    94    39    93 1   
    95    40    94 1   
    96    40    95 1   
    97    41    42 1   
    98    41    96 1   
    99    41    97 1   
   100    42    43 1   
   101    42    98 1   
   102    42    99 1   
   103    43    44 1   
   104    43    47 1   
   105    44    45 1   
   106    44   100 1   
   107    44   101 1   
   108    45    46 1   
   109    45   102 1   
   110    45   103 1   
   111    46    47 1   
   112    46   104 1   
   113    46   105 1   
   114    47   106 1   
   115    47   107 1   
   116    73   108 1   
@<TRIPOS>SUBSTRUCTURE
     1 6PD         1 TEMP              0 ****  ****    0 ROOT
