@<TRIPOS>MOLECULE
molecule
   61    60     1     0     0
SMALL
bcc


@<TRIPOS>ATOM
      1 O1           0.0000     0.0000     0.0000 o          1 6PE      -0.798500
      2 O2           2.0610    -1.2450    -0.7560 o          1 6PE      -0.798500
      3 P1           1.5450     0.0000     0.0000 p5         1 6PE       1.255800
      4 O3           2.0820     0.0000     1.5170 os         1 6PE      -0.519200
      5 C1           1.4800    -1.1210     2.1680 c3         1 6PE       0.136400
      6 C2           1.9520    -1.1800     3.6230 c3         1 6PE       0.157100
      7 C3           3.4810    -1.2000     3.6630 c3         1 6PE       0.166400
      8 O4           3.9990    -0.0570     2.9320 os         1 6PE      -0.384900
      9 C4           5.3240     0.1310     2.8340 c          1 6PE       0.633100
     10 O5           6.0860    -0.6500     3.3540 o          1 6PE      -0.570000
     11 C5           5.8630     1.3170     2.0750 c3         1 6PE      -0.121400
     12 C6           7.3920     1.2970     2.1150 c3         1 6PE      -0.075400
     13 C7           7.9380     2.5020     1.3450 c3         1 6PE      -0.082400
     14 C8           9.4680     2.4810     1.3860 c3         1 6PE      -0.083400
     15 C9          10.0130     3.6860     0.6160 c3         1 6PE      -0.092100
     16 O6           1.4640    -0.0140     4.3370 os         1 6PE      -0.420900
     17 C10          0.2740    -0.0550     4.9560 c          1 6PE       0.636100
     18 O7          -0.3920    -1.0640     4.9200 o          1 6PE      -0.557000
     19 C11         -0.2320     1.1550     5.6980 c3         1 6PE      -0.123400
     20 C12         -1.6020     0.8440     6.3070 c3         1 6PE      -0.073400
     21 C13         -2.1160     2.0730     7.0600 c3         1 6PE      -0.083400
     22 C14         -3.4840     1.7620     7.6690 c3         1 6PE      -0.082400
     23 C15         -3.9980     2.9910     8.4220 c3         1 6PE      -0.092100
     24 O8           2.0820     1.3150    -0.7590 os         1 6PE      -0.557200
     25 C16          1.4790     1.3180    -2.0550 c3         1 6PE       0.132400
     26 C17          1.9500     2.5500    -2.8320 c3         1 6PE       0.088800
     27 N1           3.3950     2.4520    -3.0760 nz         1 6PE      -0.804600
     28 H1           1.7690    -2.0320     1.6580 h1         1 6PE       0.073200
     29 H2           0.4020    -1.0180     2.1420 h1         1 6PE       0.073200
     30 H3           1.5670    -2.0780     4.0910 h1         1 6PE       0.080700
     31 H4           3.8160    -1.1520     4.6920 h1         1 6PE       0.054700
     32 H5           3.8420    -2.1140     3.2070 h1         1 6PE       0.054700
     33 H6           5.5280     1.2690     1.0460 hc         1 6PE       0.063700
     34 H7           5.5010     2.2310     2.5310 hc         1 6PE       0.063700
     35 H8           7.7530     0.3830     1.6590 hc         1 6PE       0.061200
     36 H9           7.7270     1.3440     3.1440 hc         1 6PE       0.061200
     37 H10          7.5770     3.4160     1.8010 hc         1 6PE       0.031700
     38 H11          7.6030     2.4550     0.3160 hc         1 6PE       0.031700
     39 H12          9.8020     2.5290     2.4150 hc         1 6PE       0.046700
     40 H13          9.8290     1.5670     0.9310 hc         1 6PE       0.046700
     41 H14          9.6520     4.6000     1.0710 hc         1 6PE       0.031367
     42 H15         11.0960     3.6720     0.6440 hc         1 6PE       0.031367
     43 H16          9.6780     3.6380    -0.4130 hc         1 6PE       0.031367
     44 H17          0.4640     1.4120     6.4870 hc         1 6PE       0.069200
     45 H18         -0.3230     1.9870     5.0110 hc         1 6PE       0.069200
     46 H19         -1.5110     0.0110     6.9940 hc         1 6PE       0.059700
     47 H20         -2.2980     0.5860     5.5180 hc         1 6PE       0.059700
     48 H21         -2.2080     2.9050     6.3720 hc         1 6PE       0.038700
     49 H22         -1.4200     2.3310     7.8480 hc         1 6PE       0.038700
     50 H23         -4.1810     1.5040     6.8810 hc         1 6PE       0.043700
     51 H24         -3.3930     0.9300     8.3570 hc         1 6PE       0.043700
     52 H25         -4.9670     2.7700     8.8540 hc         1 6PE       0.031367
     53 H26         -4.0900     3.8230     7.7350 hc         1 6PE       0.031367
     54 H27         -3.3020     3.2490     9.2110 hc         1 6PE       0.031367
     55 H28          0.4010     1.3470    -1.9510 h1         1 6PE       0.100200
     56 H29          1.7670     0.4210    -2.5890 h1         1 6PE       0.100200
     57 H30          1.7410     3.4430    -2.2560 hx         1 6PE       0.101700
     58 H31          1.4270     2.6010    -3.7790 hx         1 6PE       0.101700
     59 H32          3.6060     1.5570    -3.4730 hn         1 6PE       0.452133
     60 H33          3.6760     3.1730    -3.7100 hn         1 6PE       0.452133
     61 H131         3.8870     2.5570    -2.2110 hn         1 6PE       0.452133
@<TRIPOS>BOND
     1     1     3 1
     2     2     3 1
     3     3     4 1
     4     3    24 1
     5     4     5 1
     6     5     6 1
     7     5    28 1
     8     5    29 1
     9     6     7 1
    10     6    16 1
    11     6    30 1
    12     7     8 1
    13     7    31 1
    14     7    32 1
    15     8     9 1
    16     9    10 2
    17     9    11 1
    18    11    12 1
    19    11    33 1
    20    11    34 1
    21    12    13 1
    22    12    35 1
    23    12    36 1
    24    13    14 1
    25    13    37 1
    26    13    38 1
    27    14    15 1
    28    14    39 1
    29    14    40 1
    30    15    41 1
    31    15    42 1
    32    15    43 1
    33    16    17 1
    34    17    18 2
    35    17    19 1
    36    19    20 1
    37    19    44 1
    38    19    45 1
    39    20    21 1
    40    20    46 1
    41    20    47 1
    42    21    22 1
    43    21    48 1
    44    21    49 1
    45    22    23 1
    46    22    50 1
    47    22    51 1
    48    23    52 1
    49    23    53 1
    50    23    54 1
    51    24    25 1
    52    25    26 1
    53    25    55 1
    54    25    56 1
    55    26    27 1
    56    26    57 1
    57    26    58 1
    58    27    59 1
    59    27    60 1
    60    61    27 1
@<TRIPOS>SUBSTRUCTURE
     1 6PE         1 TEMP              0 ****  ****    0 ROOT
