@<TRIPOS>MOLECULE
6PH
   99    98     1     0     0
SMALL
bcc


@<TRIPOS>ATOM
      1 P          -0.5960   -0.8360    2.4180 p5        1 6PH      1.431800
      2 O11         0.3950   -1.5160    1.2840 os        1 6PH     -0.591200
      3 O12        -1.0540   -1.9030    3.3280 o         1 6PH     -0.841000
      4 O13         0.5290    0.0880    3.1710 oh        1 6PH     -0.792400
      5 O14        -1.4610    0.1400    1.7230 o         1 6PH     -0.841000
      6 C1          0.9250   -0.6880    0.2950 c3        1 6PH      0.187400
      7 C2          2.4570   -0.6270    0.4300 c3        1 6PH      0.118100
      8 C3          3.1970   -0.3830   -0.8830 c3        1 6PH      0.148400
      9 O31         2.6990    0.7810   -1.5170 os        1 6PH     -0.476900
     10 O32         4.2690    0.3440   -3.0610 o         1 6PH     -0.576000
     11 C31         3.3620    1.1510   -2.7130 c2        1 6PH      0.430100
     12 C32         2.8950    2.3250   -3.2730 c2        1 6PH     -0.599200
     13 C33         3.4620    2.8610   -4.5100 c3        1 6PH      0.076800
     14 C34         2.4170    2.9930   -5.6120 c3        1 6PH     -0.084400
     15 C35         3.0060    3.5830   -6.8760 c3        1 6PH     -0.077400
     16 C36         1.9670    3.7080   -7.9700 c3        1 6PH     -0.079400
     17 C37         2.5570    4.2950   -9.2350 c3        1 6PH     -0.078400
     18 C38         1.5160    4.4180  -10.3260 c3        1 6PH     -0.079400
     19 C39         2.1070    5.0050  -11.5910 c3        1 6PH     -0.078400
     20 C3A         1.0650    5.1270  -12.6820 c3        1 6PH     -0.079400
     21 C3B         1.6560    5.7140  -13.9460 c3        1 6PH     -0.078400
     22 C3C         0.6140    5.8370  -15.0370 c3        1 6PH     -0.080400
     23 C3D         1.1980    6.4210  -16.2980 c3        1 6PH     -0.091100
     24 O21         2.7160    0.4550    1.3530 os        1 6PH     -0.417900
     25 O22         4.4600   -0.6560    2.2520 o         1 6PH     -0.585000
     26 C21         3.6590    0.2840    2.3110 c         1 6PH      0.652100
     27 C22         3.5560    1.3360    3.3770 c3        1 6PH     -0.147400
     28 C23         4.8020    1.3900    4.2300 c3        1 6PH     -0.073400
     29 C24         4.6270    2.3570    5.3810 c3        1 6PH     -0.079400
     30 C25         5.8730    2.4210    6.2370 c3        1 6PH     -0.078400
     31 C26         5.6980    3.3810    7.3940 c3        1 6PH     -0.079400
     32 C27         6.9430    3.4440    8.2520 c3        1 6PH     -0.078400
     33 C28         6.7660    4.4020    9.4110 c3        1 6PH     -0.079400
     34 C29         8.0110    4.4630   10.2700 c3        1 6PH     -0.078400
     35 C2A         7.8330    5.4210   11.4290 c3        1 6PH     -0.079400
     36 C2B         9.0780    5.4820   12.2890 c3        1 6PH     -0.078400
     37 C2C         8.8990    6.4380   13.4480 c3        1 6PH     -0.079400
     38 C2D        10.1430    6.4980   14.3090 c3        1 6PH     -0.079400
     39 C2E         9.9650    7.4550   15.4690 c3        1 6PH     -0.080400
     40 C2F        11.2010    7.5180   16.3290 c3        1 6PH     -0.091100
     41 H1          0.4800    0.3430    0.3550 h1        1 6PH      0.052200
     42 H1A         0.6940   -1.1360   -0.7110 h1        1 6PH      0.052200
     43 H2          2.8340   -1.5920    0.8730 h1        1 6PH      0.071700
     44 H3          3.0490   -1.2710   -1.5540 h1        1 6PH      0.030700
     45 H3A         4.2950   -0.2660   -0.6780 h1        1 6PH      0.030700
     46 H32         2.0860    2.8750   -2.7920 ha        1 6PH      0.101000
     47 H32A        0.8130    0.8160    2.6270 ho        1 6PH      0.427000
     48 H33         3.9030    3.8870   -4.3380 hc        1 6PH     -0.008300
     49 H33A        4.2970    2.2040   -4.8770 hc        1 6PH     -0.008300
     50 H34         1.9880    1.9810   -5.8300 hc        1 6PH      0.029200
     51 H34A        1.5760    3.6400   -5.2510 hc        1 6PH      0.029200
     52 H35         3.4390    4.5930   -6.6540 hc        1 6PH      0.025700
     53 H35A        3.8490    2.9340   -7.2330 hc        1 6PH      0.025700
     54 H36         1.5340    2.6970   -8.1920 hc        1 6PH      0.034700
     55 H36A        1.1230    4.3560   -7.6130 hc        1 6PH      0.034700
     56 H37         3.4010    3.6470   -9.5910 hc        1 6PH      0.033200
     57 H37A        2.9900    5.3060   -9.0120 hc        1 6PH      0.033200
     58 H38         1.0840    3.4070  -10.5480 hc        1 6PH      0.037200
     59 H38A        0.6730    5.0660   -9.9700 hc        1 6PH      0.037200
     60 H39         2.9500    4.3570  -11.9470 hc        1 6PH      0.036200
     61 H39A        2.5390    6.0160  -11.3690 hc        1 6PH      0.036200
     62 H3AA        0.6330    4.1160  -12.9030 hc        1 6PH      0.038200
     63 H3AB        0.2220    5.7750  -12.3250 hc        1 6PH      0.038200
     64 H3B         2.0880    6.7260  -13.7240 hc        1 6PH      0.037200
     65 H3BA        2.4990    5.0660  -14.3020 hc        1 6PH      0.037200
     66 H3C         0.1830    4.8240  -15.2560 hc        1 6PH      0.037700
     67 H3CA       -0.2290    6.4830  -14.6780 hc        1 6PH      0.037700
     68 H3D         0.4140    6.5020  -17.0890 hc        1 6PH      0.028033
     69 H3DA        2.0240    5.7760  -16.6850 hc        1 6PH      0.028033
     70 H3DB        1.6110    7.4400  -16.1050 hc        1 6PH      0.028033
     71 H22         2.6510    1.0720    3.9960 hc        1 6PH      0.089700
     72 H22A        3.3590    2.3290    2.8940 hc        1 6PH      0.089700
     73 H23         5.0290    0.3630    4.6210 hc        1 6PH      0.049200
     74 H23A        5.6760    1.7010    3.6000 hc        1 6PH      0.049200
     75 H24         3.7530    2.0380    6.0090 hc        1 6PH      0.040200
     76 H24A        4.3920    3.3790    4.9820 hc        1 6PH      0.040200
     77 H25         6.1100    1.3970    6.6310 hc        1 6PH      0.037700
     78 H25A        6.7450    2.7430    5.6090 hc        1 6PH      0.037700
     79 H26         4.8250    3.0580    8.0210 hc        1 6PH      0.038700
     80 H26A        5.4610    4.4040    7.0000 hc        1 6PH      0.038700
     81 H27         7.8160    3.7680    7.6260 hc        1 6PH      0.037200
     82 H27A        7.1810    2.4200    8.6440 hc        1 6PH      0.037200
     83 H28         6.5290    5.4260    9.0180 hc        1 6PH      0.038700
     84 H28A        5.8930    4.0770   10.0360 hc        1 6PH      0.038700
     85 H29         8.2490    3.4390   10.6610 hc        1 6PH      0.037700
     86 H29A        8.8840    4.7880    9.6440 hc        1 6PH      0.037700
     87 H2A         7.5960    6.4450   11.0370 hc        1 6PH      0.038700
     88 H2AA        6.9600    5.0960   12.0540 hc        1 6PH      0.038700
     89 H2B         9.3150    4.4570   12.6800 hc        1 6PH      0.038700
     90 H2C         8.6620    7.4630   13.0570 hc        1 6PH      0.038700
     91 H2D        10.3800    5.4740   14.7000 hc        1 6PH      0.038700
     92 H2DA       11.0170    6.8230   13.6840 hc        1 6PH      0.038700
     93 H2E         9.7280    8.4790   15.0750 hc        1 6PH      0.037700
     94 H2F        11.0490    8.2280   17.1770 hc        1 6PH      0.029700
     95 H2FA       11.4400    6.5110   16.7500 hc        1 6PH      0.029700
     96 H58         9.9510    5.8070   11.6640 hc        1 6PH      0.038700
     97 H59         8.0250    6.1130   14.0720 hc        1 6PH      0.038700
     98 H60         9.0900    7.1300   16.0900 hc        1 6PH      0.037700
     99 H61        12.0790    7.8640   15.7320 hc        1 6PH      0.029700
@<TRIPOS>BOND
     1    1    2 1   
     2    1    3 1   
     3    1    4 1   
     4    1    5 1   
     5    2    6 1   
     6    4   47 1   
     7    6    7 1   
     8    6   41 1   
     9    6   42 1   
    10    7    8 1   
    11    7   24 1   
    12    7   43 1   
    13    8    9 1   
    14    8   44 1   
    15    8   45 1   
    16    9   11 1   
    17   10   11 1   
    18   11   12 2   
    19   12   13 1   
    20   12   46 1   
    21   13   14 1   
    22   13   48 1   
    23   13   49 1   
    24   14   15 1   
    25   14   50 1   
    26   14   51 1   
    27   15   16 1   
    28   15   52 1   
    29   15   53 1   
    30   16   17 1   
    31   16   54 1   
    32   16   55 1   
    33   17   18 1   
    34   17   56 1   
    35   17   57 1   
    36   18   19 1   
    37   18   58 1   
    38   18   59 1   
    39   19   20 1   
    40   19   60 1   
    41   19   61 1   
    42   20   21 1   
    43   20   62 1   
    44   20   63 1   
    45   21   22 1   
    46   21   64 1   
    47   21   65 1   
    48   22   23 1   
    49   22   66 1   
    50   22   67 1   
    51   23   68 1   
    52   23   69 1   
    53   23   70 1   
    54   24   26 1   
    55   25   26 2   
    56   26   27 1   
    57   27   28 1   
    58   27   71 1   
    59   27   72 1   
    60   28   29 1   
    61   28   73 1   
    62   28   74 1   
    63   29   30 1   
    64   29   75 1   
    65   29   76 1   
    66   30   31 1   
    67   30   77 1   
    68   30   78 1   
    69   31   32 1   
    70   31   79 1   
    71   31   80 1   
    72   32   33 1   
    73   32   81 1   
    74   32   82 1   
    75   33   34 1   
    76   33   83 1   
    77   33   84 1   
    78   34   35 1   
    79   34   85 1   
    80   34   86 1   
    81   35   36 1   
    82   35   87 1   
    83   35   88 1   
    84   36   37 1   
    85   36   89 1   
    86   36   96 1   
    87   37   38 1   
    88   37   90 1   
    89   37   97 1   
    90   38   39 1   
    91   38   91 1   
    92   38   92 1   
    93   39   40 1   
    94   39   93 1   
    95   39   98 1   
    96   40   94 1   
    97   40   95 1   
    98   40   99 1   
@<TRIPOS>SUBSTRUCTURE
     1 6PH         1 TEMP              0 ****  ****    0 ROOT
