@<TRIPOS>MOLECULE
molecule
   99    98     1     0     0
SMALL
bcc


@<TRIPOS>ATOM
      1 P            0.0000     0.0000     0.0000 p5         1 6PH       1.177900
      2 O11          1.6100     0.0000     0.0000 os         1 6PH      -0.561200
      3 O12         -0.4930     0.0000     1.3960 o          1 6PH      -0.909833
      4 O13         -0.5370     1.3140    -0.7590 o          1 6PH      -0.909833
      5 O14         -0.5360    -1.3150    -0.7590 o          1 6PH      -0.909833
      6 C1           2.3890    -0.9820     0.6880 c3         1 6PH       0.205400
      7 C2           3.8760    -0.6890     0.4820 c3         1 6PH       0.132100
      8 C3           4.1780    -0.6100    -1.0160 c3         1 6PH       0.165400
      9 O31          3.3050     0.3700    -1.6350 os         1 6PH      -0.312900
     10 O32          4.2660    -0.0690    -3.5750 o          1 6PH      -0.632000
     11 C31          3.4430     0.5610    -2.9560 c          1 6PH       0.643100
     12 C32          2.5690     1.5630    -3.6680 c3         1 6PH      -0.127400
     13 C33          2.9290     1.5860    -5.1550 c3         1 6PH      -0.071400
     14 C34          2.0420     2.6030    -5.8780 c3         1 6PH      -0.084400
     15 C35          2.4000     2.6250    -7.3650 c3         1 6PH      -0.081400
     16 C36          1.5150     3.6420    -8.0880 c3         1 6PH      -0.082400
     17 C37          1.8730     3.6640    -9.5740 c3         1 6PH      -0.082400
     18 C38          0.9870     4.6810   -10.2970 c3         1 6PH      -0.082400
     19 C39          1.3460     4.7040   -11.7850 c3         1 6PH      -0.082400
     20 C3A          0.4600     5.7210   -12.5070 c3         1 6PH      -0.082400
     21 C3B          0.8180     5.7430   -13.9950 c3         1 6PH      -0.081400
     22 C3C         -0.0680     6.7600   -14.7180 c3         1 6PH      -0.084400
     23 C3D          0.2900     6.7830   -16.2050 c3         1 6PH      -0.092100
     24 O21          4.2120     0.5760     1.1110 os         1 6PH      -0.387900
     25 O22          4.6690    -0.5260     2.9710 o          1 6PH      -0.587000
     26 C21          4.6070     0.5340     2.3930 c          1 6PH       0.639100
     27 C22          4.9700     1.8070     3.1110 c3         1 6PH      -0.129400
     28 C23          5.3820     1.4820     4.5490 c3         1 6PH      -0.071400
     29 C24          5.7520     2.7750     5.2790 c3         1 6PH      -0.084400
     30 C25          6.1630     2.4500     6.7160 c3         1 6PH      -0.080400
     31 C26          6.5320     3.7420     7.4460 c3         1 6PH      -0.082400
     32 C27          6.9440     3.4170     8.8830 c3         1 6PH      -0.082400
     33 C28          7.3140     4.7100     9.6130 c3         1 6PH      -0.082400
     34 C29          7.7260     4.3840    11.0500 c3         1 6PH      -0.082400
     35 C2A          8.0950     5.6770    11.7800 c3         1 6PH      -0.082400
     36 C2B          8.5070     5.3520    13.2180 c3         1 6PH      -0.082400
     37 C2C          8.8770     6.6450    13.9470 c3         1 6PH      -0.082400
     38 C2D          9.2890     6.3200    15.3840 c3         1 6PH      -0.081400
     39 C2E          9.6590     7.6130    16.1130 c3         1 6PH      -0.084400
     40 C2F         10.0690     7.2880    17.5510 c3         1 6PH      -0.092100
     41 H1           2.1570    -0.9500     1.7450 h1         1 6PH       0.027700
     42 H1A          2.1570    -1.9650     0.2970 h1         1 6PH       0.027700
     43 H2           4.4650    -1.4820     0.9280 h1         1 6PH       0.045700
     44 H3           5.2110    -0.3170    -1.1610 h1         1 6PH       0.032200
     45 H3A          4.0110    -1.5800    -1.4690 h1         1 6PH       0.032200
     46 H32          2.7270     2.5470    -3.2430 hc         1 6PH       0.099200
     47 H32A         1.5290     1.2820    -3.5520 hc         1 6PH       0.099200
     48 H33          2.7700     0.6020    -5.5800 hc         1 6PH       0.042200
     49 H33A         3.9690     1.8660    -5.2710 hc         1 6PH       0.042200
     50 H34          1.0020     2.3230    -5.7610 hc         1 6PH       0.048700
     51 H34A         2.2010     3.5860    -5.4530 hc         1 6PH       0.048700
     52 H35          2.2410     1.6410    -7.7890 hc         1 6PH       0.034700
     53 H35A         3.4400     2.9050    -7.4810 hc         1 6PH       0.034700
     54 H36          0.4750     3.3620    -7.9710 hc         1 6PH       0.043200
     55 H36A         1.6740     4.6250    -7.6630 hc         1 6PH       0.043200
     56 H37          1.7140     2.6800    -9.9990 hc         1 6PH       0.036700
     57 H37A         2.9130     3.9440    -9.6910 hc         1 6PH       0.036700
     58 H38         -0.0530     4.4010   -10.1810 hc         1 6PH       0.041700
     59 H38A         1.1450     5.6650    -9.8720 hc         1 6PH       0.041700
     60 H39          1.1870     3.7200   -12.2100 hc         1 6PH       0.038200
     61 H39A         2.3860     4.9840   -11.9020 hc         1 6PH       0.038200
     62 H3AA        -0.5800     5.4410   -12.3900 hc         1 6PH       0.041200
     63 H3AB         0.6190     6.7050   -12.0820 hc         1 6PH       0.041200
     64 H3B          1.8580     6.0230   -14.1120 hc         1 6PH       0.038700
     65 H3BA         0.6580     4.7600   -14.4190 hc         1 6PH       0.038700
     66 H3C         -1.1080     6.4800   -14.6010 hc         1 6PH       0.039700
     67 H3CA         0.0900     7.7440   -14.2930 hc         1 6PH       0.039700
     68 H3D          1.3300     7.0640   -16.3210 hc         1 6PH       0.029033
     69 H3DA         0.1320     5.8000   -16.6300 hc         1 6PH       0.029033
     70 H3DB        -0.3370     7.5030   -16.7160 hc         1 6PH       0.029033
     71 H22          5.7950     2.2880     2.6000 hc         1 6PH       0.069200
     72 H22A         4.1150     2.4730     3.1220 hc         1 6PH       0.069200
     73 H23          6.2370     0.8160     4.5380 hc         1 6PH       0.055700
     74 H23A         4.5570     1.0020     5.0610 hc         1 6PH       0.055700
     75 H24          6.5770     3.2550     4.7670 hc         1 6PH       0.038700
     76 H24A         4.8970     3.4410     5.2890 hc         1 6PH       0.038700
     77 H25          5.3370     1.9700     7.2280 hc         1 6PH       0.041700
     78 H25A         7.0170     1.7840     6.7060 hc         1 6PH       0.041700
     79 H26          7.3580     4.2230     6.9330 hc         1 6PH       0.039700
     80 H26A         5.6780     4.4080     7.4570 hc         1 6PH       0.039700
     81 H27          6.1190     2.9370     9.3960 hc         1 6PH       0.040200
     82 H27A         7.7990     2.7510     8.8720 hc         1 6PH       0.040200
     83 H28          6.4600     5.3750     9.6240 hc         1 6PH       0.039700
     84 H28A         8.1390     5.1900     9.1010 hc         1 6PH       0.039700
     85 H29          8.5810     3.7190    11.0390 hc         1 6PH       0.040200
     86 H29A         6.9010     3.9030    11.5620 hc         1 6PH       0.040200
     87 H2A          7.2400     6.3420    11.7910 hc         1 6PH       0.040200
     88 H2AA         8.9200     6.1580    11.2680 hc         1 6PH       0.040200
     89 H2B          9.3610     4.6860    13.2070 hc         1 6PH       0.040700
     90 H2C          8.0230     7.3110    13.9580 hc         1 6PH       0.040200
     91 H2D          8.4640     5.8400    15.8960 hc         1 6PH       0.040200
     92 H2DA        10.1430     5.6540    15.3730 hc         1 6PH       0.040200
     93 H2E          8.8040     8.2790    16.1240 hc         1 6PH       0.039200
     94 H2F         10.3310     8.2030    18.0670 hc         1 6PH       0.030700
     95 H2FA         9.2440     6.8080    18.0620 hc         1 6PH       0.030700
     96 H58          7.6820     4.8720    13.7300 hc         1 6PH       0.040700
     97 H59          9.7020     7.1250    13.4350 hc         1 6PH       0.040200
     98 H60         10.4840     8.0920    15.6020 hc         1 6PH       0.039200
     99 H61         10.9240     6.6220    17.5400 hc         1 6PH       0.030700
@<TRIPOS>BOND
     1     1     2 1
     2     1     4 1
     3     2     6 1
     4     3     1 1
     5     5     1 1
     6     6    41 1
     7     6    42 1
     8     7     6 1
     9     7    43 1
    10     8     7 1
    11     8    44 1
    12     8    45 1
    13     9     8 1
    14    10    11 2
    15    11     9 1
    16    12    11 1
    17    12    46 1
    18    12    47 1
    19    13    12 1
    20    13    14 1
    21    13    48 1
    22    13    49 1
    23    14    15 1
    24    14    50 1
    25    14    51 1
    26    15    52 1
    27    15    53 1
    28    16    15 1
    29    16    17 1
    30    16    54 1
    31    16    55 1
    32    17    56 1
    33    17    57 1
    34    18    17 1
    35    18    19 1
    36    18    58 1
    37    18    59 1
    38    19    20 1
    39    19    60 1
    40    19    61 1
    41    20    62 1
    42    20    63 1
    43    21    20 1
    44    21    22 1
    45    21    64 1
    46    21    65 1
    47    22    23 1
    48    22    66 1
    49    22    67 1
    50    23    68 1
    51    23    69 1
    52    23    70 1
    53    24     7 1
    54    24    26 1
    55    26    25 2
    56    27    26 1
    57    27    28 1
    58    27    71 1
    59    27    72 1
    60    28    73 1
    61    28    74 1
    62    29    28 1
    63    29    30 1
    64    29    75 1
    65    29    76 1
    66    30    77 1
    67    30    78 1
    68    31    30 1
    69    31    79 1
    70    31    80 1
    71    32    31 1
    72    32    81 1
    73    32    82 1
    74    33    32 1
    75    33    83 1
    76    33    84 1
    77    34    33 1
    78    34    85 1
    79    34    86 1
    80    35    34 1
    81    35    36 1
    82    35    87 1
    83    35    88 1
    84    36    37 1
    85    36    89 1
    86    37    38 1
    87    37    90 1
    88    38    39 1
    89    38    91 1
    90    38    92 1
    91    39    40 1
    92    39    93 1
    93    40    94 1
    94    40    95 1
    95    36    96 1
    96    37    97 1
    97    39    98 1
    98    40    99 1
@<TRIPOS>SUBSTRUCTURE
     1 6PH         1 TEMP              0 ****  ****    0 ROOT
