@<TRIPOS>MOLECULE
6PK
   70    72     1     0     0
SMALL
bcc


@<TRIPOS>ATOM
      1 C1           0.0000     0.0000     0.0000 ca         1 6PK      -0.090000
      2 C2           1.3820     0.0000     0.0000 ca         1 6PK      -0.093000
      3 C3           2.0740     0.0000     1.1970 ca         1 6PK      -0.084500
      4 C12          4.6020     0.9650     5.6670 c3         1 6PK       0.132500
      5 C13          5.4480     1.6520     6.7080 c          1 6PK       0.555100
      6 C16          7.5470     1.9340     7.9140 c3         1 6PK      -0.277000
      7 C20         11.1920     1.1750     8.8050 c3         1 6PK       0.102300
      8 C21         12.0380     1.8630     9.8460 ca         1 6PK      -0.058300
      9 C22         12.7850     2.9750     9.5020 ca         1 6PK      -0.053500
     10 C24         13.5910     3.1250    11.7590 ca         1 6PK      -0.227900
     11 C27         14.4220     3.8000    12.7820 ce         1 6PK       0.210800
     12 N29         15.1720     4.9040    12.4410 nz         1 6PK       0.190400
     13 C30          4.4900    -0.5240     6.0020 c3         1 6PK       0.175400
     14 C32          3.8480    -2.0360     7.7470 c3         1 6PK       0.274700
     15 C33          3.3190    -2.0770     9.1580 ca         1 6PK      -0.112300
     16 C34          4.1960    -2.0810    10.2250 ca         1 6PK      -0.075000
     17 C35          3.7110    -2.1150    11.5200 ca         1 6PK      -0.103500
     18 C4           1.3830     0.0000     2.3950 ca         1 6PK      -0.093300
     19 S8           2.4400     1.7100     4.2230 s6         1 6PK       0.956900
     20 N11          3.2650     1.5640     5.6510 n7         1 6PK      -0.570100
     21 O31          3.9910    -0.6760     7.3320 os         1 6PK      -0.401600
     22 C38          1.9560    -2.1070     9.3840 ca         1 6PK      -0.075000
     23 C37          1.4700    -2.1460    10.6760 ca         1 6PK      -0.103500
     24 C36          2.3470    -2.1440    11.7450 ca         1 6PK      -0.089000
     25 N15          6.7240     1.2650     6.9020 ns         1 6PK      -0.127900
     26 C17          8.9220     1.3170     7.9310 c          1 6PK       0.620100
     27 N19          9.8550     1.7740     8.7890 ns         1 6PK      -0.202900
     28 C26         12.0580     1.3830    11.1440 ca         1 6PK      -0.053500
     29 C25         12.8300     2.0080    12.1010 ca         1 6PK      -0.072000
     30 N28         14.4430     3.3500    14.0040 n2         1 6PK      -0.484100
     31 C23         13.5620     3.6080    10.4500 ca         1 6PK      -0.072000
     32 O18          9.1890     0.4100     7.1720 o          1 6PK      -0.670100
     33 O14          4.9800     2.5540     7.3710 o          1 6PK      -0.619100
     34 O10          3.3630     2.3430     3.3480 o          1 6PK      -0.575300
     35 O9           1.2220     2.3440     4.5850 o          1 6PK      -0.575300
     36 C5           0.0010     0.0020     2.3940 ca         1 6PK      -0.084500
     37 C6          -0.6910     0.0070     1.1970 ca         1 6PK      -0.093000
     38 H1          -0.5420     0.0020    -0.9380 ha         1 6PK       0.106000
     39 H2           1.9230    -0.0030    -0.9380 ha         1 6PK       0.107000
     40 H3           3.1570    -0.0000     1.1960 ha         1 6PK       0.110500
     41 H4           3.0830    -0.5110     3.5690 h1         1 6PK       0.068200
     42 H5           1.5510    -0.5110     4.4540 h1         1 6PK       0.068200
     43 H6           5.0610     1.0830     4.6930 h1         1 6PK       0.058700
     44 H7           7.5680     2.2300     6.8720 h1         1 6PK       0.133200
     45 H8           7.2510     2.8000     8.4940 h1         1 6PK       0.133200
     46 H9          11.1130     0.1210     9.0430 h1         1 6PK       0.041200
     47 H10         11.6520     1.2930     7.8310 h1         1 6PK       0.041200
     48 H11         12.7610     3.3480     8.4860 ha         1 6PK       0.133000
     49 H12         15.8210     4.6570    11.7210 hn         1 6PK       0.222467
     50 H13         14.5670     5.6300    12.1100 hn         1 6PK       0.222467
     51 H14          3.8120    -1.0010     5.3060 h1         1 6PK       0.000200
     52 H15          5.4670    -0.9850     5.9280 h1         1 6PK       0.000200
     53 H16          4.8130    -2.5280     7.7090 h1         1 6PK      -0.006300
     54 H17          3.1570    -2.5440     7.0870 h1         1 6PK      -0.006300
     55 H18          5.2650    -2.0810    10.0470 ha         1 6PK       0.103000
     56 H19          4.3840    -2.1700    12.3660 ha         1 6PK       0.103500
     57 H20          2.8600     1.9070     6.5000 hn         1 6PK       0.382800
     58 H21          1.2680    -2.1220     8.5460 ha         1 6PK       0.103000
     59 H22          0.4010    -2.1740    10.8530 ha         1 6PK       0.103500
     60 H23          1.9580    -2.2040    12.7550 ha         1 6PK       0.104000
     61 H24          7.1230     0.5500     6.3260 hn         1 6PK       0.208500
     62 H25          9.6350     2.5230     9.4160 hn         1 6PK       0.178500
     63 H26         11.4660     0.5140    11.4080 ha         1 6PK       0.133000
     64 H27         12.8450     1.6310    13.1160 ha         1 6PK       0.100000
     65 H28         13.8980     2.5480    14.2520 hn         1 6PK       0.381400
     66 H29         14.1470     4.4790    10.1800 ha         1 6PK       0.100000
     67 H30         -0.5410     0.0040     3.3320 ha         1 6PK       0.110500
     68 H31         -1.7740     0.0070     1.1970 ha         1 6PK       0.107000
     69 C7           2.1370    -0.0000     3.6990 c3         1 6PK       0.049700
     70 H293        15.6760     5.2260    13.2440 hn         1 6PK       0.222467
@<TRIPOS>BOND
     1     1     2 ar  
     2     1    37 ar  
     3     1    38 1   
     4     2     3 ar  
     5     2    39 1   
     6     3    18 ar  
     7     3    40 1   
     8     4     5 1   
     9     4    13 1   
    10     4    20 1   
    11     4    43 1   
    12     5    25 1   
    13     5    33 2   
    14     6    25 1   
    15     6    26 1   
    16     6    44 1   
    17     6    45 1   
    18     7     8 1   
    19     7    27 1   
    20     7    46 1   
    21     7    47 1   
    22     8     9 ar  
    23     8    28 ar  
    24     9    31 ar  
    25     9    48 1   
    26    10    11 1   
    27    10    29 ar  
    28    10    31 ar  
    29    11    12 1   
    30    11    30 2   
    31    12    49 1   
    32    12    50 1   
    33    12    70 1   
    34    13    21 1   
    35    13    51 1   
    36    13    52 1   
    37    14    15 1   
    38    14    21 1   
    39    14    53 1   
    40    14    54 1   
    41    15    16 ar  
    42    15    22 ar  
    43    16    17 ar  
    44    16    55 1   
    45    17    24 ar  
    46    17    56 1   
    47    18    36 ar  
    48    18    69 1   
    49    19    20 1   
    50    19    34 2   
    51    19    35 2   
    52    19    69 1   
    53    20    57 1   
    54    22    23 ar  
    55    22    58 1   
    56    23    24 ar  
    57    23    59 1   
    58    24    60 1   
    59    25    61 1   
    60    26    27 1   
    61    26    32 2   
    62    27    62 1   
    63    28    29 ar  
    64    28    63 1   
    65    29    64 1   
    66    30    65 1   
    67    31    66 1   
    68    36    37 ar  
    69    36    67 1   
    70    37    68 1   
    71    41    69 1   
    72    42    69 1   
@<TRIPOS>SUBSTRUCTURE
     1 6PK         1 TEMP              0 ****  ****    0 ROOT
