@<TRIPOS>MOLECULE
molecule
  136   135     1     0     0
SMALL
bcc


@<TRIPOS>ATOM
      1 C26          0.0000     0.0000     0.0000 c3         1 6PL      -0.092100
      2 C25          1.5300     0.0000     0.0000 c3         1 6PL      -0.084400
      3 C24          2.0400     0.0000     1.4420 c3         1 6PL      -0.081400
      4 C23          3.5700    -0.0000     1.4420 c3         1 6PL      -0.082400
      5 C22          4.0810     0.0000     2.8850 c3         1 6PL      -0.082400
      6 C21          5.6110     0.0000     2.8850 c3         1 6PL      -0.081400
      7 C20          6.1200     0.0000     4.3270 c3         1 6PL      -0.081400
      8 C19          7.6500     0.0000     4.3270 c3         1 6PL      -0.082400
      9 C18          8.1600     0.0020     5.7700 c3         1 6PL      -0.082400
     10 C17          9.6910     0.0010     5.7700 c3         1 6PL      -0.082400
     11 C16         10.2000     0.0020     7.2120 c3         1 6PL      -0.082400
     12 C15         11.7300     0.0020     7.2120 c3         1 6PL      -0.081400
     13 C14         12.2410     0.0020     8.6540 c3         1 6PL      -0.082400
     14 C13         13.7710     0.0020     8.6540 c3         1 6PL      -0.075400
     15 C12         14.2810     0.0020    10.0960 c3         1 6PL      -0.121400
     16 C11         15.7880     0.0020    10.0960 c          1 6PL       0.630100
     17 O11         16.3920     0.0010     9.0500 o          1 6PL      -0.569000
     18 O3          16.4590     0.0020    11.2590 os         1 6PL      -0.383900
     19 C3          17.9110     0.0020    11.2590 c3         1 6PL       0.166400
     20 C2          18.4210     0.0030    12.7020 c3         1 6PL       0.157100
     21 C1          17.8110    -1.1780    13.4590 c3         1 6PL       0.137400
     22 O3P         16.3860    -1.1240    13.3590 os         1 6PL      -0.523200
     23 P           15.8140    -2.3890    14.1730 p5         1 6PL       1.251800
     24 O1P         16.4290    -3.6300    13.6520 o          1 6PL      -0.798000
     25 O2P         16.1700    -2.2270    15.7340 o          1 6PL      -0.798000
     26 O4P         14.2160    -2.4650    13.9920 os         1 6PL      -0.558200
     27 C4          13.7840    -3.6650    14.6350 c3         1 6PL       0.132400
     28 C5          12.2660    -3.7990    14.4990 c3         1 6PL       0.099800
     29 N           11.9170    -4.0060    13.0870 n4         1 6PL      -0.569800
     30 C7          12.6660    -5.1540    12.5600 c3         1 6PL       0.098100
     31 C8          10.4750    -4.2670    12.9720 c3         1 6PL       0.098100
     32 C6          12.2600    -2.8020    12.3170 c3         1 6PL       0.098100
     33 O2          18.0370     1.2440    13.3500 os         1 6PL      -0.419900
     34 C31         18.8060     1.7590    14.3220 c          1 6PL       0.638100
     35 O31         19.8190     1.1910    14.6570 o          1 6PL      -0.558000
     36 C32         18.4080     3.0470    14.9950 c3         1 6PL      -0.123400
     37 C33         19.4480     3.4110    16.0570 c3         1 6PL      -0.072400
     38 C34         19.0440     4.7190    16.7400 c3         1 6PL      -0.083400
     39 C35         20.0830     5.0820    17.8020 c3         1 6PL      -0.080400
     40 C36         19.6790     6.3900    18.4850 c3         1 6PL      -0.082400
     41 C37         20.7190     6.7530    19.5460 c3         1 6PL      -0.081400
     42 C38         20.3150     8.0620    20.2300 c3         1 6PL      -0.082400
     43 C39         21.3550     8.4250    21.2920 c3         1 6PL      -0.082400
     44 C40         20.9510     9.7330    21.9750 c3         1 6PL      -0.082400
     45 C41         21.9900    10.0960    23.0360 c3         1 6PL      -0.082400
     46 C42         21.5860    11.4050    23.7200 c3         1 6PL      -0.082400
     47 C43         22.6260    11.7680    24.7820 c3         1 6PL      -0.082400
     48 C44         22.2220    13.0750    25.4650 c3         1 6PL      -0.082400
     49 C45         23.2620    13.4390    26.5260 c3         1 6PL      -0.082400
     50 C46         22.8560    14.7470    27.2100 c3         1 6PL      -0.081400
     51 C47         23.8970    15.1110    28.2720 c3         1 6PL      -0.084400
     52 C48         23.4920    16.4180    28.9550 c3         1 6PL      -0.092100
     53 H261        -0.3610     0.8400     0.5810 hc         1 6PL       0.032367
     54 H262        -0.3610    -0.9230     0.4370 hc         1 6PL       0.032367
     55 H263        -0.3610     0.0830    -1.0180 hc         1 6PL       0.032367
     56 H251         1.8910    -0.8850    -0.5110 hc         1 6PL       0.040200
     57 H252         1.8910     0.8850    -0.5110 hc         1 6PL       0.040200
     58 H241         1.6790     0.8850     1.9530 hc         1 6PL       0.040700
     59 H242         1.6790    -0.8850     1.9530 hc         1 6PL       0.040700
     60 H231         3.9310     0.8840     0.9310 hc         1 6PL       0.041200
     61 H232         3.9310    -0.8850     0.9320 hc         1 6PL       0.041200
     62 H221         3.7200    -0.8840     3.3960 hc         1 6PL       0.040200
     63 H222         3.7200     0.8850     3.3950 hc         1 6PL       0.040200
     64 H211         5.9720     0.8850     2.3740 hc         1 6PL       0.042200
     65 H212         5.9720    -0.8840     2.3740 hc         1 6PL       0.042200
     66 H201         5.7590     0.8850     4.8380 hc         1 6PL       0.040200
     67 H202         5.7590    -0.8840     4.8380 hc         1 6PL       0.040200
     68 H191         8.0110    -0.8850     3.8170 hc         1 6PL       0.042700
     69 H192         8.0110     0.8840     3.8160 hc         1 6PL       0.042700
     70 H181         7.7990     0.8870     6.2790 hc         1 6PL       0.039200
     71 H182         7.7980    -0.8820     6.2810 hc         1 6PL       0.039200
     72 H171        10.0510    -0.8840     5.2600 hc         1 6PL       0.043700
     73 H172        10.0520     0.8850     5.2590 hc         1 6PL       0.043700
     74 H161         9.8390     0.8860     7.7220 hc         1 6PL       0.036200
     75 H162         9.8390    -0.8830     7.7230 hc         1 6PL       0.036200
     76 H151        12.0910    -0.8830     6.7010 hc         1 6PL       0.047200
     77 H152        12.0910     0.8860     6.7010 hc         1 6PL       0.047200
     78 H141        11.8800    -0.8820     9.1650 hc         1 6PL       0.031200
     79 H142        11.8800     0.8870     9.1650 hc         1 6PL       0.031200
     80 H131        14.1320     0.8860     8.1440 hc         1 6PL       0.061700
     81 H132        14.1320    -0.8830     8.1440 hc         1 6PL       0.061700
     82 H121        13.9200     0.8860    10.6070 hc         1 6PL       0.061700
     83 H122        13.9200    -0.8830    10.6070 hc         1 6PL       0.061700
     84 H31         18.2720     0.8860    10.7470 h1         1 6PL       0.053700
     85 H32         18.2720    -0.8830    10.7490 h1         1 6PL       0.053700
     86 H2          19.5000    -0.0860    12.7030 h1         1 6PL       0.080700
     87 H11         18.1020    -1.1270    14.5010 h1         1 6PL       0.073200
     88 H12         18.1680    -2.1060    13.0290 h1         1 6PL       0.073200
     89 H41         14.0510    -3.6300    15.6840 h1         1 6PL       0.093700
     90 H42         14.2640    -4.5170    14.1680 h1         1 6PL       0.093700
     91 H51         11.9240    -4.6460    15.0830 hx         1 6PL       0.093700
     92 H52         11.7900    -2.8960    14.8600 hx         1 6PL       0.093700
     93 H71         12.8010    -5.8880    13.3450 hx         1 6PL       0.095033
     94 H72         12.1140    -5.5990    11.7400 hx         1 6PL       0.095033
     95 H73         13.6340    -4.8220    12.2050 hx         1 6PL       0.095033
     96 H81         10.2290    -5.1770    13.5050 hx         1 6PL       0.095033
     97 H82          9.9230    -3.4380    13.3980 hx         1 6PL       0.095033
     98 H83         10.2100    -4.3770    11.9270 hx         1 6PL       0.095033
     99 H61         12.2270    -1.9360    12.9670 hx         1 6PL       0.095033
    100 H62         13.2560    -2.9080    11.9060 hx         1 6PL       0.095033
    101 H63         11.5480    -2.6750    11.5100 hx         1 6PL       0.095033
    102 H321        17.4400     2.9250    15.4640 hc         1 6PL       0.070200
    103 H322        18.3540     3.8380    14.2560 hc         1 6PL       0.070200
    104 H331        19.5020     2.6200    16.7950 hc         1 6PL       0.059700
    105 H332        20.4170     3.5330    15.5870 hc         1 6PL       0.059700
    106 H341        18.0750     4.5970    17.2100 hc         1 6PL       0.039200
    107 H342        18.9900     5.5100    16.0020 hc         1 6PL       0.039200
    108 H351        20.1370     4.2910    18.5400 hc         1 6PL       0.044700
    109 H352        21.0520     5.2050    17.3320 hc         1 6PL       0.044700
    110 H361        18.7110     6.2680    18.9540 hc         1 6PL       0.039700
    111 H362        19.6250     7.1810    17.7470 hc         1 6PL       0.039700
    112 H371        20.7730     5.9620    20.2840 hc         1 6PL       0.042200
    113 H372        21.6870     6.8750    19.0770 hc         1 6PL       0.042200
    114 H381        20.2610     8.8530    19.4920 hc         1 6PL       0.040200
    115 H382        19.3470     7.9400    20.7000 hc         1 6PL       0.040200
    116 H391        22.3230     8.5470    20.8220 hc         1 6PL       0.041200
    117 H392        21.4090     7.6340    22.0300 hc         1 6PL       0.041200
    118 H401        20.8970    10.5240    21.2370 hc         1 6PL       0.040700
    119 H402        19.9820     9.6100    22.4440 hc         1 6PL       0.040700
    120 H411        22.9590    10.2180    22.5670 hc         1 6PL       0.041200
    121 H412        22.0440     9.3050    23.7740 hc         1 6PL       0.041200
    122 H421        20.6180    11.2830    24.1900 hc         1 6PL       0.040700
    123 H422        21.5320    12.1960    22.9820 hc         1 6PL       0.040700
    124 H431        22.6800    10.9770    25.5200 hc         1 6PL       0.040700
    125 H432        23.5940    11.8900    24.3120 hc         1 6PL       0.040700
    126 H441        21.2530    12.9530    25.9340 hc         1 6PL       0.040700
    127 H442        22.1680    13.8670    24.7270 hc         1 6PL       0.040700
    128 H451        23.3160    12.6470    27.2640 hc         1 6PL       0.040700
    129 H452        24.2300    13.5620    26.0570 hc         1 6PL       0.040700
    130 H461        21.8880    14.6240    27.6800 hc         1 6PL       0.040700
    131 H462        22.8010    15.5380    26.4720 hc         1 6PL       0.040700
    132 H471        24.8650    15.2340    27.8010 hc         1 6PL       0.039700
    133 H472        23.9520    14.3190    29.0090 hc         1 6PL       0.039700
    134 H481        24.2250    16.6720    29.7120 hc         1 6PL       0.032367
    135 H482        23.4440    17.2110    28.2190 hc         1 6PL       0.032367
    136 H483        22.5210    16.2970    29.4200 hc         1 6PL       0.032367
@<TRIPOS>BOND
     1     1     2 1   
     2     1    53 1   
     3     1    54 1   
     4     1    55 1   
     5     2     3 1   
     6     2    56 1   
     7     2    57 1   
     8     3     4 1   
     9     3    58 1   
    10     3    59 1   
    11     4     5 1   
    12     4    60 1   
    13     4    61 1   
    14     5     6 1   
    15     5    62 1   
    16     5    63 1   
    17     6     7 1   
    18     6    64 1   
    19     6    65 1   
    20     7     8 1   
    21     7    66 1   
    22     7    67 1   
    23     8     9 1   
    24     8    68 1   
    25     8    69 1   
    26     9    10 1   
    27     9    70 1   
    28     9    71 1   
    29    10    11 1   
    30    10    72 1   
    31    10    73 1   
    32    11    12 1   
    33    11    74 1   
    34    11    75 1   
    35    12    13 1   
    36    12    76 1   
    37    12    77 1   
    38    13    14 1   
    39    13    78 1   
    40    13    79 1   
    41    14    15 1   
    42    14    80 1   
    43    14    81 1   
    44    15    16 1   
    45    15    82 1   
    46    15    83 1   
    47    16    17 2   
    48    16    18 1   
    49    18    19 1   
    50    19    20 1   
    51    19    84 1   
    52    19    85 1   
    53    20    21 1   
    54    20    33 1   
    55    20    86 1   
    56    21    22 1   
    57    21    87 1   
    58    21    88 1   
    59    22    23 1   
    60    23    24 1   
    61    23    25 1   
    62    23    26 1   
    63    26    27 1   
    64    27    28 1   
    65    27    89 1   
    66    27    90 1   
    67    28    29 1   
    68    28    91 1   
    69    28    92 1   
    70    29    30 1   
    71    29    31 1   
    72    29    32 1   
    73    30    93 1   
    74    30    94 1   
    75    30    95 1   
    76    31    96 1   
    77    31    97 1   
    78    31    98 1   
    79    32    99 1   
    80    32   100 1   
    81    32   101 1   
    82    33    34 1   
    83    34    35 2   
    84    34    36 1   
    85    36    37 1   
    86    36   102 1   
    87    36   103 1   
    88    37    38 1   
    89    37   104 1   
    90    37   105 1   
    91    38    39 1   
    92    38   106 1   
    93    38   107 1   
    94    39    40 1   
    95    39   108 1   
    96    39   109 1   
    97    40    41 1   
    98    40   110 1   
    99    40   111 1   
   100    41    42 1   
   101    41   112 1   
   102    41   113 1   
   103    42    43 1   
   104    42   114 1   
   105    42   115 1   
   106    43    44 1   
   107    43   116 1   
   108    43   117 1   
   109    44    45 1   
   110    44   118 1   
   111    44   119 1   
   112    45    46 1   
   113    45   120 1   
   114    45   121 1   
   115    46    47 1   
   116    46   122 1   
   117    46   123 1   
   118    47    48 1   
   119    47   124 1   
   120    47   125 1   
   121    48    49 1   
   122    48   126 1   
   123    48   127 1   
   124    49    50 1   
   125    49   128 1   
   126    49   129 1   
   127    50    51 1   
   128    50   130 1   
   129    50   131 1   
   130    51    52 1   
   131    51   132 1   
   132    51   133 1   
   133    52   134 1   
   134    52   135 1   
   135    52   136 1   
@<TRIPOS>SUBSTRUCTURE
     1 6PL         1 TEMP              0 ****  ****    0 ROOT
