@<TRIPOS>MOLECULE
molecule
   42    44     1     0     0
SMALL
bcc


@<TRIPOS>ATOM
      1 C01          0.0000     0.0000     0.0000 cc         1 6PM      -0.079300
      2 C02          1.3650     0.0000     0.0000 cd         1 6PM      -0.260300
      3 C06         -1.7980     0.0060     1.7450 c3         1 6PM       0.063600
      4 C07          3.2200    -0.0000     1.8200 c3         1 6PM      -0.114400
      5 N09          3.3960     0.7050    -1.3490 na         1 6PM      -0.043600
      6 C11          3.0980    -0.4270    -3.2100 cc         1 6PM       0.350600
      7 C13          3.2770    -0.9960    -4.5950 c3         1 6PM      -0.037700
      8 C15          2.7700    -2.4390    -4.6230 c3         1 6PM      -0.087100
      9 C16          3.1480     0.4630    -6.6230 ca         1 6PM      -0.080500
     10 C17          2.4320     1.2220    -7.5290 ca         1 6PM      -0.191000
     11 C18          1.0580     1.3480    -7.3950 ca         1 6PM       0.139100
     12 C19          0.4040     0.7110    -6.3500 ca         1 6PM      -0.191000
     13 C20          1.1250    -0.0460    -5.4450 ca         1 6PM      -0.080500
     14 C22         -1.0600     2.1790    -8.0840 c3         1 6PM       0.129700
     15 C03          1.7900     0.0000     1.3440 cd         1 6PM       0.352600
     16 N04          0.7280     0.0000     2.1050 nc         1 6PM      -0.509800
     17 N05         -0.4070     0.0050     1.2850 na         1 6PM       0.069400
     18 C08          2.2410     0.0000    -1.1950 cd         1 6PM       0.023700
     19 N10          3.9050     0.4170    -2.6220 nd         1 6PM      -0.509800
     20 C12          2.0390    -0.7070    -2.3460 cc         1 6PM      -0.347300
     21 C14          2.4950    -0.1700    -5.5820 ca         1 6PM      -0.112300
     22 O21          0.3520     2.0930    -8.2850 os         1 6PM      -0.329900
     23 H1          -0.6400     0.0000    -0.8740 h4         1 6PM       0.178000
     24 H2          -2.3040     0.8850     1.3640 h1         1 6PM       0.056700
     25 H3          -2.2990    -0.8840     1.3840 h1         1 6PM       0.056700
     26 H4          -1.8200     0.0190     2.8280 h1         1 6PM       0.056700
     27 H5           3.7900    -0.7230     1.2490 hc         1 6PM       0.053033
     28 H6           3.6460     0.9860     1.6820 hc         1 6PM       0.053033
     29 H7           3.2510    -0.2640     2.8700 hc         1 6PM       0.053033
     30 H8           3.8060     1.3210    -0.6750 hn         1 6PM       0.328700
     31 H9           4.3270    -0.9770    -4.8600 hc         1 6PM       0.069700
     32 H10          2.8580    -2.8730    -3.6340 hc         1 6PM       0.040700
     33 H11          3.3610    -3.0160    -5.3240 hc         1 6PM       0.040700
     34 H12          1.7310    -2.4510    -4.9310 hc         1 6PM       0.040700
     35 H13          4.2210     0.3650    -6.7280 ha         1 6PM       0.135000
     36 H14          2.9450     1.7180    -8.3450 ha         1 6PM       0.137500
     37 H15         -0.6690     0.8080    -6.2420 ha         1 6PM       0.137500
     38 H16          0.6150    -0.5430    -4.6290 ha         1 6PM       0.135000
     39 H17         -1.4920     1.1860    -8.1310 h1         1 6PM       0.040033
     40 H18         -1.4980     2.8000    -8.8560 h1         1 6PM       0.040033
     41 H19         -1.2620     2.6150    -7.1130 h1         1 6PM       0.040033
     42 H20          1.2420    -1.4180    -2.5250 ha         1 6PM       0.151000
@<TRIPOS>BOND
     1     3    17 1   
     2    17     1 1   
     3    17    16 1   
     4     1     2 2   
     5    16    15 2   
     6     2    15 1   
     7     2    18 1   
     8    15     4 1   
     9    20    18 2   
    10    20     6 1   
    11    18     5 1   
    12     9    10 ar  
    13     9    21 ar  
    14    10    11 ar  
    15     6     7 1   
    16     6    19 2   
    17     7    21 1   
    18     7     8 1   
    19    21    13 ar  
    20    14    22 1   
    21    11    22 1   
    22    11    12 ar  
    23     5    19 1   
    24    13    12 ar  
    25     1    23 1   
    26     3    24 1   
    27     3    25 1   
    28     3    26 1   
    29     4    27 1   
    30     4    28 1   
    31     4    29 1   
    32     5    30 1   
    33     7    31 1   
    34     8    32 1   
    35     8    33 1   
    36     8    34 1   
    37     9    35 1   
    38    10    36 1   
    39    12    37 1   
    40    13    38 1   
    41    14    39 1   
    42    14    40 1   
    43    14    41 1   
    44    20    42 1   
@<TRIPOS>SUBSTRUCTURE
     1 6PM         1 TEMP              0 ****  ****    0 ROOT
