@<TRIPOS>MOLECULE
6PN
   42    43     1     0     0
SMALL
bcc


@<TRIPOS>ATOM
      1 CAA         0.2070    0.2290   -0.5970 c3        1 6PN     -0.093100
      2 OAB         7.1030    1.9030    7.1040 oh        1 6PN     -0.492100
      3 CAC         9.4430   -3.1050   10.0750 ca        1 6PN     -0.155000
      4 CAD         9.4520   -2.8630    8.7020 ca        1 6PN     -0.103000
      5 CAE         8.4950   -2.4810   10.8890 ca        1 6PN     -0.103000
      6 CAF         8.5200   -1.9980    8.1300 ca        1 6PN     -0.165500
      7 CAG         7.5530   -1.6150   10.3410 ca        1 6PN     -0.165500
      8 CAH         5.5400   -1.3940    5.0980 ca        1 6PN     -0.155000
      9 CAI         5.8670   -1.5290    6.4430 ca        1 6PN     -0.105000
     10 CAJ         6.2610    0.9210    5.1170 ca        1 6PN     -0.151000
     11 CAK         1.6980    0.1900   -0.3790 c3        1 6PN     -0.080400
     12 CAL         2.0410    0.1060    1.0930 c3        1 6PN     -0.079400
     13 CAM         3.5390    0.0670    1.3070 c3        1 6PN     -0.080400
     14 CAN         3.8800   -0.0180    2.7800 c3        1 6PN     -0.076400
     15 CAO         5.3820   -0.0540    2.9890 c3        1 6PN     -0.040100
     16 OAP         6.6320   -0.4590    8.5060 os        1 6PN     -0.260200
     17 CAQ         5.7330   -0.1740    4.4320 ca        1 6PN     -0.046300
     18 CAR         6.5990    0.7940    6.4730 ca        1 6PN      0.133100
     19 CAS         7.5770   -1.3780    8.9570 ca        1 6PN      0.107100
     20 CAT         6.3990   -0.4350    7.1320 ca        1 6PN     -0.002900
     21 HAA        -0.0240    0.2910   -1.6880 hc        1 6PN      0.032700
     22 HAAA       -0.2760   -0.6900   -0.1850 hc        1 6PN      0.032700
     23 HAAB       -0.2420    1.1170   -0.0900 hc        1 6PN      0.032700
     24 HOAB        7.2850    1.6630    8.0270 ho        1 6PN      0.437000
     25 HAD        10.1990   -3.3550    8.0610 ha        1 6PN      0.135000
     26 HAE         8.4890   -2.6740   11.9720 ha        1 6PN      0.135000
     27 HAF         8.5210   -1.8060    7.0480 ha        1 6PN      0.149500
     28 HAG         6.8000   -1.1170   10.9680 ha        1 6PN      0.149500
     29 HAH         5.1210   -2.2500    4.5490 ha        1 6PN      0.139000
     30 HAI         5.7170   -2.4820    6.9700 ha        1 6PN      0.149000
     31 HAJ         6.4190    1.8870    4.6150 ha        1 6PN      0.154000
     32 HAK         2.1670    1.1080   -0.8210 hc        1 6PN      0.038200
     33 HAKA        2.1340   -0.6940   -0.9160 hc        1 6PN      0.038200
     34 HAL         1.6070    0.9890    1.6310 hc        1 6PN      0.040700
     35 HALA        1.5740   -0.8130    1.5360 hc        1 6PN      0.040700
     36 HAM         3.9740   -0.8160    0.7680 hc        1 6PN      0.039700
     37 HAMA        4.0060    0.9860    0.8650 hc        1 6PN      0.039700
     38 HAN         3.4180   -0.9400    3.2230 hc        1 6PN      0.046200
     39 HANA        3.4450    0.8640    3.3190 hc        1 6PN      0.046200
     40 HAO         5.8390    0.8760    2.5570 hc        1 6PN      0.050700
     41 HAOA        5.8150   -0.9270    2.4310 hc        1 6PN      0.050700
     42 HAC        10.1810   -3.7880   10.5180 ha        1 6PN      0.134000
@<TRIPOS>BOND
     1    1   11 1   
     2    1   21 1   
     3    1   22 1   
     4    1   23 1   
     5    2   18 1   
     6    2   24 1   
     7    3    4 ar  
     8    3    5 ar  
     9    3   42 1   
    10    4    6 ar  
    11    4   25 1   
    12    5    7 ar  
    13    5   26 1   
    14    6   19 ar  
    15    6   27 1   
    16    7   19 ar  
    17    7   28 1   
    18    8    9 ar  
    19    8   17 ar  
    20    8   29 1   
    21    9   20 ar  
    22    9   30 1   
    23   10   17 ar  
    24   10   18 ar  
    25   10   31 1   
    26   11   12 1   
    27   11   32 1   
    28   11   33 1   
    29   12   13 1   
    30   12   34 1   
    31   12   35 1   
    32   13   14 1   
    33   13   36 1   
    34   13   37 1   
    35   14   15 1   
    36   14   38 1   
    37   14   39 1   
    38   15   17 1   
    39   15   40 1   
    40   15   41 1   
    41   16   19 1   
    42   16   20 1   
    43   18   20 ar  
@<TRIPOS>SUBSTRUCTURE
     1 6PN         1 TEMP              0 ****  ****    0 ROOT
