@<TRIPOS>MOLECULE
molecule
   42    43     1     0     0
SMALL
bcc


@<TRIPOS>ATOM
      1 CAA          0.0000     0.0000     0.0000 c3         1 6PN      -0.092100
      2 OAB          7.0340     2.3760     6.9010 oh         1 6PN      -0.504100
      3 CAC          8.5080    -3.6370     9.8810 ca         1 6PN      -0.133000
      4 CAD          9.2640    -3.1230     8.8440 ca         1 6PN      -0.117500
      5 CAE          7.4130    -2.9400    10.3540 ca         1 6PN      -0.117500
      6 CAF          8.9250    -1.9090     8.2780 ca         1 6PN      -0.142500
      7 CAG          7.0700    -1.7260     9.7920 ca         1 6PN      -0.142500
      8 CAH          6.3430    -1.1990     4.9540 ca         1 6PN      -0.101000
      9 CAI          6.8050    -1.2050     6.2580 ca         1 6PN      -0.195000
     10 CAJ          6.3440     1.1970     4.9550 ca         1 6PN      -0.132000
     11 CAK          1.5300     0.0000     0.0000 c3         1 6PN      -0.084400
     12 CAL          2.0410     0.0000     1.4420 c3         1 6PN      -0.081400
     13 CAM          3.5710    -0.0000     1.4420 c3         1 6PN      -0.083400
     14 CAN          4.0810    -0.0010     2.8850 c3         1 6PN      -0.078400
     15 CAO          5.6110    -0.0010     2.8830 c3         1 6PN      -0.033100
     16 OAP          7.4920    -0.0120     8.1970 os         1 6PN      -0.233200
     17 CAQ          6.1140    -0.0010     4.3050 ca         1 6PN      -0.100300
     18 CAR          6.8060     1.1980     6.2600 ca         1 6PN       0.085100
     19 CAS          7.8260    -1.2060     8.7520 ca         1 6PN       0.102100
     20 CAT          7.0380    -0.0080     6.9150 ca         1 6PN       0.115100
     21 HAA         -0.3610    -0.8850     0.5100 hc         1 6PN       0.032700
     22 HAAA        -0.3610     0.0010    -1.0210 hc         1 6PN       0.032700
     23 HAAB        -0.3610     0.8840     0.5110 hc         1 6PN       0.032700
     24 HOAB         6.2110     2.7760     7.1260 ho         1 6PN       0.415000
     25 HAD         10.1220    -3.6720     8.4750 ha         1 6PN       0.135000
     26 HAE          6.8220    -3.3460    11.1670 ha         1 6PN       0.135000
     27 HAF          9.5180    -1.5060     7.4660 ha         1 6PN       0.145500
     28 HAG          6.2110    -1.1800    10.1640 ha         1 6PN       0.145500
     29 HAH          6.1620    -2.1360     4.4410 ha         1 6PN       0.135000
     30 HAI          6.9840    -2.1460     6.7640 ha         1 6PN       0.150000
     31 HAJ          6.1630     2.1350     4.4440 ha         1 6PN       0.144000
     32 HAK          1.8910    -0.8840    -0.5110 hc         1 6PN       0.039700
     33 HAKA         1.8910     0.8840    -0.5110 hc         1 6PN       0.039700
     34 HAL          1.6800    -0.8840     1.9530 hc         1 6PN       0.041700
     35 HALA         1.6800     0.8850     1.9530 hc         1 6PN       0.041700
     36 HAM          3.9320     0.8840     0.9310 hc         1 6PN       0.041700
     37 HAMA         3.9320    -0.8850     0.9310 hc         1 6PN       0.041700
     38 HAN          3.7200    -0.8860     3.3950 hc         1 6PN       0.044700
     39 HANA         3.7200     0.8830     3.3960 hc         1 6PN       0.044700
     40 HAO          5.9710    -0.8850     2.3720 hc         1 6PN       0.049200
     41 HAOA         5.9710     0.8840     2.3730 hc         1 6PN       0.049200
     42 HAC          8.7750    -4.5890    10.3240 ha         1 6PN       0.132000
@<TRIPOS>BOND
     1     1    11 1
     2     2    18 1
     3     3     4 ar
     4     3     5 ar
     5     4     6 ar
     6     5     7 ar
     7     6    19 ar
     8     7    19 ar
     9     8     9 ar
    10     8    17 ar
    11     9    20 ar
    12    10    17 ar
    13    10    18 ar
    14    11    12 1
    15    12    13 1
    16    13    14 1
    17    14    15 1
    18    15    17 1
    19    16    19 1
    20    16    20 1
    21    18    20 ar
    22     1    21 1
    23     1    22 1
    24     1    23 1
    25     2    24 1
    26     3    42 1
    27     4    25 1
    28     5    26 1
    29     6    27 1
    30     7    28 1
    31     8    29 1
    32     9    30 1
    33    10    31 1
    34    11    32 1
    35    11    33 1
    36    12    34 1
    37    12    35 1
    38    13    36 1
    39    13    37 1
    40    14    38 1
    41    14    39 1
    42    15    40 1
    43    15    41 1
@<TRIPOS>SUBSTRUCTURE
     1 6PN         1 TEMP              0 ****  ****    0 ROOT
