@<TRIPOS>MOLECULE
molecule
   30    30     1     0     0
SMALL
bcc


@<TRIPOS>ATOM
      1 CAA          0.0000     0.0000     0.0000 c3         1 6PP      -0.090100
      2 CAB          2.1960    -1.3020     2.1610 c3         1 6PP      -0.048900
      3 OAD          3.2030     4.0960     3.2870 oh         1 6PP      -0.511100
      4 CAE          2.3280     1.1320     2.0110 c2         1 6PP      -0.166200
      5 CAF         -0.9170     4.1190     3.0000 ca         1 6PP      -0.125000
      6 CAG         -0.2900     4.9120     3.9420 ca         1 6PP      -0.153000
      7 CAH         -0.1680     3.3210     2.1560 ca         1 6PP      -0.120000
      8 CAI          1.5300     0.0000     0.0000 c3         1 6PP      -0.048200
      9 CAJ          2.0240     2.4400     1.3280 c3         1 6PP       0.001100
     10 CAK          2.0330     0.0000     1.4210 c2         1 6PP      -0.134400
     11 CAL          1.0920     4.9080     4.0430 ca         1 6PP       0.066100
     12 CAM          1.8460     4.1040     3.1930 ca         1 6PP       0.096100
     13 CAN          1.2110     3.3110     2.2500 ca         1 6PP      -0.080300
     14 HAA         -0.3610     0.0750     1.0190 hc         1 6PP       0.035033
     15 HAAA        -0.3610     0.8440    -0.5750 hc         1 6PP       0.035033
     16 HAAB        -0.3610    -0.9200    -0.4440 hc         1 6PP       0.035033
     17 HAB          3.1980    -1.3620     2.5700 hc         1 6PP       0.040700
     18 HABA         2.0350    -2.1280     1.4790 hc         1 6PP       0.040700
     19 HABB         1.4740    -1.3520     2.9670 hc         1 6PP       0.040700
     20 HOAC         1.5870     5.3170     5.8270 ho         1 6PP       0.424000
     21 HOAD         3.5410     4.9370     3.0290 ho         1 6PP       0.426000
     22 HAE          2.6890     1.1290     3.0320 ha         1 6PP       0.136000
     23 HAF         -1.9970     4.1240     2.9230 ha         1 6PP       0.134000
     24 HAG         -0.8790     5.5370     4.6030 ha         1 6PP       0.139000
     25 HAH         -0.6630     2.7010     1.4180 ha         1 6PP       0.137000
     26 HAI          1.8910     0.8840    -0.5110 hc         1 6PP       0.047200
     27 HAIA         1.8910    -0.8850    -0.5110 hc         1 6PP       0.047200
     28 HAJ          2.9510     2.9420     1.0810 hc         1 6PP       0.059200
     29 HAJA         1.4620     2.2520     0.4210 hc         1 6PP       0.059200
     30 OAC          1.7110     5.6880     4.9700 oh         1 6PP      -0.521100
@<TRIPOS>BOND
     1     1     8 1   
     2     2    10 1   
     3    30    11 1   
     4     3    12 1   
     5     4     9 1   
     6     4    10 2   
     7     5     6 ar  
     8     5     7 ar  
     9     6    11 ar  
    10     7    13 ar  
    11     8    10 1   
    12     9    13 1   
    13    11    12 ar  
    14    12    13 ar  
    15     1    14 1   
    16     1    15 1   
    17     1    16 1   
    18     2    17 1   
    19     2    18 1   
    20     2    19 1   
    21    30    20 1   
    22     3    21 1   
    23     4    22 1   
    24     5    23 1   
    25     6    24 1   
    26     7    25 1   
    27     8    26 1   
    28     8    27 1   
    29     9    28 1   
    30     9    29 1   
@<TRIPOS>SUBSTRUCTURE
     1 6PP         1 TEMP              0 ****  ****    0 ROOT
