@<TRIPOS>MOLECULE
6PP
   30    29     1     0     0
SMALL
bcc


@<TRIPOS>ATOM
      1 CAA         0.5790   -0.1130   -0.8270 c3        1 6PP     -0.206000
      2 CAB         1.9540   -1.4340    1.8630 c3        1 6PP     -0.181000
      3 OAD         2.9570    4.6220    2.7060 oh        1 6PP     -0.260000
      4 CAE         1.6180    0.9910    2.1490 c2        1 6PP     -0.169000
      5 CAF        -1.0850    3.7640    4.0740 c1        1 6PP      0.176000
      6 CAG        -0.0840    5.8500    4.1990 c2        1 6PP     -0.252000
      7 CAH        -0.2970    2.9780    3.3520 c2        1 6PP     -0.450000
      8 CAI         1.9170    0.0690   -0.1500 c3        1 6PP     -0.131000
      9 CAJ         1.4890    2.3950    1.6850 c3        1 6PP     -0.100000
     10 CAK         1.8130   -0.0560    1.3330 c2        1 6PP     -0.108000
     11 CAL         1.1650    5.3390    4.1640 c2        1 6PP      0.054000
     12 CAM         1.6590    4.4110    3.1430 c2        1 6PP     -0.063000
     13 CAN         0.9720    3.3090    2.7420 c2        1 6PP      0.019000
     14 HAA        -0.1410    0.6730   -0.4950 hc        1 6PP      0.074000
     15 HAAA        0.1460   -1.1130   -0.5800 hc        1 6PP      0.074000
     16 HAAB        0.6970   -0.0420   -1.9350 hc        1 6PP      0.074000
     17 HAB         1.2370   -2.1190    1.3450 hc        1 6PP      0.081000
     18 HABA        2.9920   -1.8100    1.6780 hc        1 6PP      0.081000
     19 HABB        1.7550   -1.4780    2.9620 hc        1 6PP      0.081000
     20 HOAC        2.8140    5.1000    5.1090 ho        1 6PP      0.231000
     21 HOAD        3.0090    5.5510    2.4350 ho        1 6PP      0.218000
     22 HAE         1.5620    0.8420    3.2400 ha        1 6PP      0.128000
     23 HAF        -0.6370    1.9310    3.1960 ha        1 6PP      0.192000
     24 HAG        -0.4310    6.4530    5.0470 ha        1 6PP      0.150000
     25 HAH        -0.7600    5.8010    3.3320 ha        1 6PP      0.150000
     26 HAI         2.3380    1.0740   -0.4210 hc        1 6PP      0.085000
     27 HAIA        2.6360   -0.7040   -0.5350 hc        1 6PP      0.085000
     28 HAJ         0.7850    2.4440    0.8060 hc        1 6PP      0.109000
     29 HAJA        2.4950    2.7570    1.3280 hc        1 6PP      0.109000
     30 OAC         2.0460    5.6900    5.1650 oh        1 6PP     -0.253000
@<TRIPOS>BOND
     1    1    8 1   
     2    1   14 1   
     3    1   15 1   
     4    1   16 1   
     5    2   10 1   
     6    2   17 1   
     7    2   18 1   
     8    2   19 1   
     9    3   12 1   
    10    3   21 1   
    11    4    9 1   
    12    4   10 1   
    13    4   22 1   
    14    5    7 1   
    15    6   11 1   
    16    6   24 1   
    17    6   25 1   
    18    7   13 1   
    19    7   23 1   
    20    8   10 1   
    21    8   26 1   
    22    8   27 1   
    23    9   13 1   
    24    9   28 1   
    25    9   29 1   
    26   11   12 1   
    27   11   30 1   
    28   12   13 1   
    29   20   30 1   
@<TRIPOS>SUBSTRUCTURE
     1 6PP         1 TEMP              0 ****  ****    0 ROOT
