@<TRIPOS>MOLECULE
molecule
   38    40     1     0     0
SMALL
bcc


@<TRIPOS>ATOM
      1 C01          0.0000     0.0000     0.0000 cc         1 6PQ      -0.102400
      2 C02         -0.8690    -0.0010    -1.1910 cc         1 6PQ       0.007700
      3 N03          1.8910     0.0000     1.1980 nc         1 6PQ      -0.684000
      4 C04          1.3520     0.0000     0.0000 cc         1 6PQ       0.388600
      5 C07         -2.0880    -0.6330    -1.3150 cd         1 6PQ      -0.328300
      6 C10         -2.5680    -0.3770    -2.6000 cd         1 6PQ       0.345600
      7 C11         -3.8720    -0.8760    -3.1650 c3         1 6PQ      -0.044400
      8 C13         -6.1670     2.4360    -4.5890 ca         1 6PQ       0.140100
      9 C15         -5.5580     0.9410    -2.8180 ca         1 6PQ      -0.077000
     10 C16         -4.5430     0.7160    -4.9760 ca         1 6PQ      -0.077000
     11 C17         -5.2830     1.7870    -5.4390 ca         1 6PQ      -0.190500
     12 C18         -6.3010     2.0120    -3.2750 ca         1 6PQ      -0.190500
     13 C21         -7.7870     4.1100    -4.1110 c3         1 6PQ       0.129700
     14 S05         -0.5380     0.0070     1.6780 ss         1 6PQ      -0.161300
     15 N06         -0.6210     0.6300    -2.3750 na         1 6PQ      -0.035600
     16 N08         -1.6970     0.3690    -3.2320 nc         1 6PQ      -0.498800
     17 C09          1.0870     0.0020     2.2090 cd         1 6PQ       0.448700
     18 C12         -4.6810     0.2920    -3.6680 ca         1 6PQ      -0.122300
     19 C14          2.1710     0.0000    -1.2650 c3         1 6PQ      -0.123400
     20 H1          -2.5370    -1.2990    -0.5890 ha         1 6PQ       0.158000
     21 H2          -4.4260    -1.3940    -2.3920 hc         1 6PQ       0.060200
     22 H3          -3.6730    -1.5560    -3.9850 hc         1 6PQ       0.060200
     23 H4          -5.6630     0.6090    -1.7920 ha         1 6PQ       0.134500
     24 H5          -3.8530     0.2080    -5.6390 ha         1 6PQ       0.134500
     25 H6          -5.1760     2.1170    -6.4650 ha         1 6PQ       0.138000
     26 H7          -6.9890     2.5190    -2.6090 ha         1 6PQ       0.138000
     27 H8           0.6480     0.0770     4.2910 hc         1 6PQ       0.059367
     28 H9           2.0500    -0.9170     3.8710 hc         1 6PQ       0.059367
     29 H10          2.1740     0.8470     3.8340 hc         1 6PQ       0.059367
     30 H11         -8.5090     3.3820    -3.7620 h1         1 6PQ       0.040700
     31 H12         -7.2240     4.4940    -3.2680 h1         1 6PQ       0.040700
     32 H13         -8.3050     4.9260    -4.6000 h1         1 6PQ       0.040700
     33 H14          0.1890     1.1750    -2.5950 hn         1 6PQ       0.332700
     34 H15          3.1930    -0.2750    -1.0340 hc         1 6PQ       0.054033
     35 H16          1.7550    -0.7140    -1.9650 hc         1 6PQ       0.054033
     36 H17          2.1550     0.9900    -1.7060 hc         1 6PQ       0.054033
     37 C19          1.5200     0.0030     3.6530 c3         1 6PQ      -0.113400
     38 O20         -6.8960     3.4900    -5.0410 os         1 6PQ      -0.329900
@<TRIPOS>BOND
     1    19     4 1   
     2     4     3 1   
     3     4     1 2   
     4    15    16 1   
     5    15     2 1   
     6     3    17 2   
     7    16     6 2   
     8     1     2 1   
     9     1    14 1   
    10     2     5 2   
    11    17    37 1   
    12    17    14 1   
    13     6     5 1   
    14     6     7 1   
    15     7    18 1   
    16    18    10 ar  
    17    18     9 ar  
    18    10    11 ar  
    19     9    12 ar  
    20    11     8 ar  
    21    12     8 ar  
    22     8    38 1   
    23    38    13 1   
    24     5    20 1   
    25     7    21 1   
    26     7    22 1   
    27     9    23 1   
    28    10    24 1   
    29    11    25 1   
    30    12    26 1   
    31    37    27 1   
    32    37    28 1   
    33    37    29 1   
    34    13    30 1   
    35    13    31 1   
    36    13    32 1   
    37    15    33 1   
    38    19    34 1   
    39    19    35 1   
    40    19    36 1   
@<TRIPOS>SUBSTRUCTURE
     1 6PQ         1 TEMP              0 ****  ****    0 ROOT
