@<TRIPOS>MOLECULE
molecule
   25    24     1     0     0
SMALL
bcc


@<TRIPOS>ATOM
      1 OAH          0.0000     0.0000     0.0000 o          1 6PR      -0.899500
      2 PAP          1.6090     0.0000     0.0000 p5         1 6PR       1.021700
      3 OAG          2.1460     0.0000     1.5190 o          1 6PR      -0.899500
      4 OAE          2.1030     1.2090    -0.6970 o          1 6PR      -0.899500
      5 CAJ          2.2170    -1.4890    -0.8590 c3         1 6PR      -0.277600
      6 CAN          3.7190    -1.4280    -0.9670 c          1 6PR       0.718100
      7 OAD          4.4080    -1.7330    -0.0160 o          1 6PR      -0.659100
      8 N            4.2970    -1.0360    -2.1190 ns         1 6PR      -0.525900
      9 CA           5.7580    -0.9780    -2.2240 c3         1 6PR       0.073700
     10 CB           6.1700    -1.1260    -3.6900 c3         1 6PR      -0.209400
     11 CG           5.7900    -2.4980    -4.1820 c          1 6PR       0.888600
     12 OD2          6.0560    -2.8560    -5.4470 o          1 6PR      -0.821300
     13 OD1          5.2440    -3.2780    -3.4360 o          1 6PR      -0.821300
     14 C            6.2460     0.3480    -1.6970 c          1 6PR       0.392100
     15 O            5.4520     1.1620    -1.2740 o          1 6PR      -0.326100
     16 NAA          7.5650     0.6270    -1.6940 nz         1 6PR      -0.680400
     17 HAJ1         1.9310    -2.3710    -0.2990 hc         1 6PR       0.054200
     18 HAJ2         1.7850    -1.5350    -1.8510 hc         1 6PR       0.054200
     19 HN           3.7290    -0.7750    -2.9010 hn         1 6PR       0.337500
     20 HA           6.1940    -1.7810    -1.6430 h1         1 6PR       0.113700
     21 HB1          5.6640    -0.3760    -4.2850 hc         1 6PR       0.021200
     22 HB2          7.2420    -0.9950    -3.7790 hc         1 6PR       0.021200
     23 HAA1         7.7670     1.2720    -0.9560 hn         1 6PR       0.440467
     24 HAA2         7.8220     1.0330    -2.5720 hn         1 6PR       0.440467
     25 HAA3         8.0840    -0.2170    -1.5520 hn         1 6PR       0.440467
@<TRIPOS>BOND
     1     1     2 1
     2     2     3 1
     3     2     4 1
     4     2     5 1
     5     5     6 1
     6     5    17 1
     7     5    18 1
     8     6     7 2
     9     6     8 1
    10     8     9 1
    11     8    19 1
    12     9    10 1
    13     9    14 1
    14     9    20 1
    15    10    11 1
    16    10    21 1
    17    10    22 1
    18    11    12 1
    19    11    13 1
    20    14    15 2
    21    14    16 1
    22    16    23 1
    23    16    24 1
    24    25    16 1
@<TRIPOS>SUBSTRUCTURE
     1 6PR         1 TEMP              0 ****  ****    0 ROOT
