@<TRIPOS>MOLECULE
molecule
   37    39     1     0     0
SMALL
bcc


@<TRIPOS>ATOM
      1 C01          0.0000     0.0000     0.0000 c3         1 6PS      -0.113400
      2 C02          1.5060     0.0000     0.0000 cc         1 6PS       0.450700
      3 C04          3.9350    -0.0010     0.4060 cc         1 6PS      -0.101400
      4 C05          3.5460    -0.0060    -0.8890 cd         1 6PS       0.388600
      5 C07          4.5230    -0.0110    -2.0370 c3         1 6PS      -0.122400
      6 N09          6.3880    -0.6330     0.3200 na         1 6PS      -0.035600
      7 C11          7.1630     0.3740     2.1200 cd         1 6PS       0.351600
      8 C13          8.0800     0.8780     3.2050 c3         1 6PS      -0.041700
      9 C15          8.5700     2.2570     2.8480 ca         1 6PS      -0.076300
     10 C16          7.6650     3.2890     2.6760 ca         1 6PS      -0.117000
     11 C17          8.1150     4.5540     2.3490 ca         1 6PS      -0.128500
     12 C18          9.4680     4.7880     2.1950 ca         1 6PS      -0.129000
     13 C19         10.3730     3.7570     2.3670 ca         1 6PS      -0.128500
     14 C20          9.9230     2.4920     2.6980 ca         1 6PS      -0.117000
     15 S03          2.4820     0.0000     1.4040 ss         1 6PS      -0.166300
     16 N06          2.2430    -0.0060    -1.0610 nd         1 6PS      -0.683000
     17 C08          5.3250    -0.0010     0.8960 cc         1 6PS       0.007700
     18 N10          7.5160    -0.3780     1.1090 nc         1 6PS      -0.500800
     19 C12          5.7970     0.6400     2.0220 cd         1 6PS      -0.327300
     20 C14          7.3190     0.9330     4.5310 c3         1 6PS      -0.087100
     21 H1          -0.3610    -0.8720    -0.5320 hc         1 6PS       0.059367
     22 H2          -0.3610    -0.0250     1.0210 hc         1 6PS       0.059367
     23 H3          -0.3610     0.8970    -0.4890 hc         1 6PS       0.059367
     24 H4           5.2420     0.7890    -1.9030 hc         1 6PS       0.053700
     25 H5           5.0420    -0.9610    -2.0660 hc         1 6PS       0.053700
     26 H6           3.9880     0.1370    -2.9680 hc         1 6PS       0.053700
     27 H7           6.3650    -1.1810    -0.5170 hn         1 6PS       0.332700
     28 H8           8.9260     0.2080     3.3020 hc         1 6PS       0.071700
     29 H9           6.6050     3.1050     2.7980 ha         1 6PS       0.132500
     30 H10          7.4060     5.3620     2.2150 ha         1 6PS       0.128500
     31 H11          9.8190     5.7800     1.9370 ha         1 6PS       0.127000
     32 H12         11.4330     3.9420     2.2470 ha         1 6PS       0.128500
     33 H13         10.6310     1.6840     2.8330 ha         1 6PS       0.132500
     34 H14          5.1950     1.1580     2.7590 ha         1 6PS       0.158000
     35 H15          8.0030     0.7340     5.3480 hc         1 6PS       0.042367
     36 H16          6.5330     0.1870     4.5280 hc         1 6PS       0.042367
     37 H17          6.8830     1.9160     4.6570 hc         1 6PS       0.042367
@<TRIPOS>BOND
     1    20     8 1
     2     8     9 1
     3     8     7 1
     4    10     9 ar
     5    10    11 ar
     6    18     7 2
     7    18     6 1
     8     9    14 ar
     9    11    12 ar
    10     7    19 1
    11     6    17 1
    12    14    13 ar
    13    12    13 ar
    14    19    17 2
    15    17     3 1
    16     5     4 1
    17     3     4 2
    18     3    15 1
    19     4    16 1
    20    16     2 2
    21    15     2 1
    22     2     1 1
    23     1    21 1
    24     1    22 1
    25     1    23 1
    26     5    24 1
    27     5    25 1
    28     5    26 1
    29     6    27 1
    30     8    28 1
    31    10    29 1
    32    11    30 1
    33    12    31 1
    34    13    32 1
    35    14    33 1
    36    19    34 1
    37    20    35 1
    38    20    36 1
    39    20    37 1
@<TRIPOS>SUBSTRUCTURE
     1 6PS         1 TEMP              0 ****  ****    0 ROOT
