@<TRIPOS>MOLECULE
6PT
   46    48     1     0     0
SMALL
bcc


@<TRIPOS>ATOM
      1 C18          0.0000     0.0000     0.0000 ca         1 6PT      -0.043000
      2 C9          -6.9590     3.5120     5.7540 ca         1 6PT      -0.109000
      3 C10         -7.2470     2.1680     5.9120 ca         1 6PT      -0.118500
      4 C11         -6.4010     1.2120     5.3860 ca         1 6PT      -0.095500
      5 C16          2.0950     0.0000     1.2130 ca         1 6PT      -0.043000
      6 C12         -2.3330     2.0410     4.7200 c          1 6PT       0.638300
      7 C6          -5.2550     1.6040     4.6960 ca         1 6PT      -0.074900
      8 C5          -4.7630    -3.7720     3.6030 c3         1 6PT      -0.013100
      9 C20          2.1370    -0.0000    -1.2760 c          1 6PT       0.976200
     10 C3          -2.0580    -0.1670     3.6060 cc         1 6PT       0.008800
     11 O2           1.5310    -0.0010    -2.3290 o          1 6PT      -0.887800
     12 C13         -2.4540     2.3050     6.1990 c3         1 6PT      -0.095100
     13 N2          -0.6870    -0.0050     3.6020 nu         1 6PT      -0.178400
     14 C14          0.0100    -0.0050     2.3980 ca         1 6PT      -0.019400
     15 C15          1.4030     0.0010     2.4010 ca         1 6PT      -0.168000
     16 O3           3.4850     0.0000    -1.2750 o          1 6PT      -0.887800
     17 C17          1.3980     0.0000     0.0000 ca         1 6PT      -0.118600
     18 C19         -0.6860    -0.0010     1.1920 ca         1 6PT      -0.168000
     19 C21         -2.6760    -1.3770     3.0460 c          1 6PT       0.566700
     20 O4          -1.9810    -2.2580     2.5690 o          1 6PT      -0.650500
     21 C2          -2.8930     0.8110     4.1460 cd         1 6PT      -0.348800
     22 O1          -1.7750     2.8450     4.0030 o          1 6PT      -0.533100
     23 C1          -4.3420     0.5840     4.1280 cd         1 6PT       0.484200
     24 N1          -4.8340    -0.5170     3.6140 nc         1 6PT      -0.551300
     25 N3          -4.0170    -1.5060     3.0650 n          1 6PT       0.150200
     26 C4          -4.6280    -2.7150     2.5050 c3         1 6PT       0.053000
     27 C8          -5.8250     3.9070     5.0690 ca         1 6PT      -0.118500
     28 C7          -4.9700     2.9600     4.5390 ca         1 6PT      -0.095500
     29 H1          -0.5420     0.0020    -0.9380 ha         1 6PT       0.124000
     30 H4          -6.8000     0.2370     5.6350 ha         1 6PT       0.126500
     31 H5           3.1780     0.0020     1.2160 ha         1 6PT       0.124000
     32 H6          -3.9000    -3.7260     4.2560 hc         1 6PT       0.007700
     33 H7          -4.8220    -4.7550     3.1510 hc         1 6PT       0.007700
     34 H8          -5.6610    -3.5840     4.1780 hc         1 6PT       0.007700
     35 H9          -2.9230     3.2690     6.3570 hc         1 6PT       0.024033
     36 H10         -1.4670     2.3060     6.6470 hc         1 6PT       0.024033
     37 H11         -3.0570     1.5300     6.6560 hc         1 6PT       0.024033
     38 H12         -0.1890     0.0660     4.4680 hn         1 6PT       0.276800
     39 H13          1.9420     0.0010     3.3410 ha         1 6PT       0.089500
     40 H15         -1.7700    -0.0010     1.1920 ha         1 6PT       0.089500
     41 H16         -5.6090    -2.4750     2.1130 h1         1 6PT       0.041700
     42 H17         -4.0040    -3.0990     1.7080 h1         1 6PT       0.041700
     43 H18         -5.6120     4.9610     4.9380 ha         1 6PT       0.102500
     44 H19         -4.5780     3.4730     3.6700 ha         1 6PT       0.126500
     45 H2          -7.6250     4.2580     6.1700 ha         1 6PT       0.097000
     46 H3          -8.1350     1.8650     6.4530 ha         1 6PT       0.102500
@<TRIPOS>BOND
     1     1    17 ar  
     2     1    18 ar  
     3     1    29 1   
     4     2     3 ar  
     5     2    27 ar  
     6     2    45 1   
     7     3     4 ar  
     8     3    46 1   
     9     4     7 ar  
    10     4    30 1   
    11     5    15 ar  
    12     5    17 ar  
    13     5    31 1   
    14     6    12 1   
    15     6    21 1   
    16     6    22 2   
    17     7    23 1   
    18     7    28 ar  
    19     8    26 1   
    20     8    32 1   
    21     8    33 1   
    22     8    34 1   
    23     9    11 1   
    24     9    16 1   
    25     9    17 1   
    26    10    13 1   
    27    10    19 1   
    28    10    21 2   
    29    12    35 1   
    30    12    36 1   
    31    12    37 1   
    32    13    14 1   
    33    13    38 1   
    34    14    15 ar  
    35    14    18 ar  
    36    15    39 1   
    37    18    40 1   
    38    19    20 2   
    39    19    25 1   
    40    21    23 1   
    41    23    24 2   
    42    24    25 1   
    43    25    26 1   
    44    26    41 1   
    45    26    42 1   
    46    27    28 ar  
    47    27    43 1   
    48    28    44 1   
@<TRIPOS>SUBSTRUCTURE
     1 6PT         1 TEMP              0 ****  ****    0 ROOT
