@<TRIPOS>MOLECULE
molecule
   46    48     1     0     0
SMALL
bcc


@<TRIPOS>ATOM
      1 C18          0.0000     0.0000     0.0000 ca         1 6PT      -0.069000
      2 C9          -6.9590     3.5120     5.7540 ca         1 6PT      -0.133000
      3 C10         -7.2470     2.1680     5.9120 ca         1 6PT      -0.144000
      4 C11         -6.4010     1.2120     5.3860 ca         1 6PT      -0.114000
      5 C16          2.0950     0.0000     1.2130 ca         1 6PT      -0.069000
      6 C12         -2.3330     2.0410     4.7200 c          1 6PT       0.584300
      7 C6          -5.2550     1.6040     4.6960 ca         1 6PT      -0.074900
      8 C5          -4.7630    -3.7720     3.6030 c3         1 6PT      -0.112100
      9 C20          2.1370    -0.0000    -1.2760 c          1 6PT       0.885200
     10 C3          -2.0580    -0.1670     3.6060 cc         1 6PT       0.163800
     11 O2           1.5310    -0.0010    -2.3290 o          1 6PT      -0.841800
     12 C13         -2.4540     2.3050     6.1990 c3         1 6PT      -0.188100
     13 N2          -0.6870    -0.0050     3.6020 nu         1 6PT      -0.662400
     14 C14          0.0100    -0.0050     2.3980 ca         1 6PT       0.146600
     15 C15          1.4030     0.0010     2.4010 ca         1 6PT      -0.194000
     16 O3           3.4850     0.0000    -1.2750 o          1 6PT      -0.841800
     17 C17          1.3980     0.0000     0.0000 ca         1 6PT      -0.125600
     18 C19         -0.6860    -0.0010     1.1920 ca         1 6PT      -0.194000
     19 C21         -2.6760    -1.3770     3.0460 c          1 6PT       0.642700
     20 O4          -1.9810    -2.2580     2.5690 o          1 6PT      -0.601500
     21 C2          -2.8930     0.8110     4.1460 cd         1 6PT      -0.322800
     22 O1          -1.7750     2.8450     4.0030 o          1 6PT      -0.495100
     23 C1          -4.3420     0.5840     4.1280 cd         1 6PT       0.462200
     24 N1          -4.8340    -0.5170     3.6140 nc         1 6PT      -0.462300
     25 N3          -4.0170    -1.5060     3.0650 n          1 6PT      -0.205800
     26 C4          -4.6280    -2.7150     2.5050 c3         1 6PT       0.126000
     27 C8          -5.8250     3.9070     5.0690 ca         1 6PT      -0.144000
     28 C7          -4.9700     2.9600     4.5390 ca         1 6PT      -0.114000
     29 H1          -0.5420     0.0020    -0.9380 ha         1 6PT       0.152000
     30 H4          -6.8000     0.2370     5.6350 ha         1 6PT       0.154500
     31 H5           3.1780     0.0020     1.2160 ha         1 6PT       0.152000
     32 H6          -3.9000    -3.7260     4.2560 hc         1 6PT       0.041367
     33 H7          -4.8220    -4.7550     3.1510 hc         1 6PT       0.041367
     34 H8          -5.6610    -3.5840     4.1780 hc         1 6PT       0.041367
     35 H9          -2.9230     3.2690     6.3570 hc         1 6PT       0.057700
     36 H10         -1.4670     2.3060     6.6470 hc         1 6PT       0.057700
     37 H11         -3.0570     1.5300     6.6560 hc         1 6PT       0.057700
     38 H12         -0.1890     0.0660     4.4680 hn         1 6PT       0.445800
     39 H13          1.9420     0.0010     3.3410 ha         1 6PT       0.106000
     40 H15         -1.7700    -0.0010     1.1920 ha         1 6PT       0.106000
     41 H16         -5.6090    -2.4750     2.1130 h1         1 6PT       0.072700
     42 H17         -4.0040    -3.0990     1.7080 h1         1 6PT       0.072700
     43 H18         -5.6120     4.9610     4.9380 ha         1 6PT       0.130000
     44 H19         -4.5780     3.4730     3.6700 ha         1 6PT       0.154500
     45 H2          -7.6250     4.2580     6.1700 ha         1 6PT       0.123000
     46 H3          -8.1350     1.8650     6.4530 ha         1 6PT       0.130000
@<TRIPOS>BOND
     1    11     9 1
     2    16     9 1
     3     9    17 1
     4    17     1 ar
     5    17     5 ar
     6     1    18 ar
     7     5    15 ar
     8    18    14 ar
     9    15    14 ar
    10    22     6 2
    11    14    13 1
    12    12     6 1
    13     6    21 1
    14    13    10 1
    15    21    10 2
    16    21    23 1
    17    10    19 1
    18     3     4 ar
    19     3     2 ar
    20     4     7 ar
    21     2    27 ar
    22     7    23 1
    23     7    28 ar
    24    23    24 2
    25    27    28 ar
    26    19    20 2
    27    19    25 1
    28    24    25 1
    29    25    26 1
    30    26     8 1
    31     1    29 1
    32     2    45 1
    33     3    46 1
    34     4    30 1
    35     5    31 1
    36     8    32 1
    37     8    33 1
    38     8    34 1
    39    12    35 1
    40    12    36 1
    41    12    37 1
    42    13    38 1
    43    15    39 1
    44    18    40 1
    45    26    41 1
    46    26    42 1
    47    27    43 1
    48    28    44 1
@<TRIPOS>SUBSTRUCTURE
     1 6PT         1 TEMP              0 ****  ****    0 ROOT
