@<TRIPOS>MOLECULE
6PV
   76    80     1     0     0
SMALL
bcc


@<TRIPOS>ATOM
      1 C1           0.0000     0.0000     0.0000 ca         1 6PV       0.737900
      2 C2          -0.0940    -0.0000     2.3030 ca         1 6PV       0.712600
      3 C3           1.3110     0.0000     2.3430 cp         1 6PV      -0.379600
      4 O1           4.9950    -0.8060     7.5390 o          1 6PV      -0.662100
      5 O2           3.0470     2.6910    10.0560 o          1 6PV      -0.643100
      6 O3          -0.8160     0.0000     3.4490 os         1 6PV      -0.414100
      7 C11          4.4990     0.8950     9.5710 c3         1 6PV      -0.018000
      8 C12          3.9490     1.9840    10.4550 c          1 6PV       0.549100
      9 C13          3.8760     3.1110    12.5490 ca         1 6PV      -0.097400
     10 C14          2.5070     3.3430    12.5040 ca         1 6PV      -0.114500
     11 C15          1.9370     4.2650    13.3590 ca         1 6PV      -0.082000
     12 C16          2.7260     4.9580    14.2580 ca         1 6PV      -0.111000
     13 C17          4.0900     4.7300    14.3050 ca         1 6PV      -0.082000
     14 C18          4.6670     3.8090    13.4540 ca         1 6PV      -0.114500
     15 C19          2.0070     0.0000     1.1330 ca         1 6PV       0.527200
     16 C20         -2.2390     0.0000     3.3200 c3         1 6PV       0.212400
     17 C21         -2.8770     0.0010     4.7100 c3         1 6PV      -0.062700
     18 C22         -4.3970     0.1270     4.5750 c3         1 6PV      -0.022400
     19 C23         -5.0350     0.0660     5.9650 c3         1 6PV       0.148800
     20 C24         -3.2340    -1.3300     6.7920 c3         1 6PV       0.148800
     21 C25         -2.5430    -1.3110     5.4270 c3         1 6PV      -0.022400
     22 C26          0.0430    -0.1070    -2.4060 ca         1 6PV       0.033600
     23 C27         -0.3980     0.5540    -3.5460 ca         1 6PV      -0.178000
     24 C28          0.3080     0.4420    -4.7280 ca         1 6PV      -0.037000
     25 C29          1.4550    -0.3280    -4.7800 ca         1 6PV      -0.228000
     26 C30          1.9000    -0.9910    -3.6450 ca         1 6PV       0.170100
     27 N1           1.3250     0.0000     0.0000 nb         1 6PV      -0.713000
     28 N2          -0.7010     0.0010     1.1240 nb         1 6PV      -0.773000
     29 C4           2.0350    -0.0010     3.6350 cp         1 6PV       0.025000
     30 C5           3.0540    -0.9270     3.8640 ca         1 6PV      -0.107000
     31 C6           3.7240    -0.9260     5.0600 ca         1 6PV      -0.056000
     32 C7           3.3870     0.0010     6.0500 ca         1 6PV      -0.163600
     33 C8           2.3680     0.9280     5.8200 ca         1 6PV      -0.056000
     34 C9           1.7010     0.9300     4.6220 ca         1 6PV      -0.107000
     35 C10          4.1080     0.0010     7.3380 c          1 6PV       0.599700
     36 N3           3.7830     0.8960     8.2930 ns         1 6PV      -0.193900
     37 N4           4.4570     2.1730    11.6890 ns         1 6PV      -0.018100
     38 N5          -4.6860    -1.2070     6.6090 n7         1 6PV      -0.580200
     39 N6          -0.6710     0.0060    -1.2100 nu         1 6PV      -0.278300
     40 O4           3.0280    -1.7480    -3.6980 os         1 6PV      -0.305900
     41 C31          3.7050    -1.8160    -4.9550 c3         1 6PV       0.243700
     42 C32          1.1920    -0.8850    -2.4590 ca         1 6PV      -0.148000
     43 H1           5.5540     1.0720     9.3940 h1         1 6PV       0.039700
     44 H2           4.3710    -0.0640    10.0570 h1         1 6PV       0.039700
     45 H3           1.8880     2.8000    11.8000 ha         1 6PV       0.121500
     46 H4           0.8690     4.4470    13.3260 ha         1 6PV       0.103500
     47 H5           2.2750     5.6810    14.9270 ha         1 6PV       0.104000
     48 H6           4.7050     5.2750    15.0110 ha         1 6PV       0.103500
     49 H7           5.7350     3.6310    13.4910 ha         1 6PV       0.121500
     50 H8           3.0900     0.0000     1.1220 h4         1 6PV      -0.008900
     51 H9          -2.5520     0.8840     2.7780 h1         1 6PV       0.013700
     52 H10         -2.5520    -0.8850     2.7790 h1         1 6PV       0.013700
     53 H11         -2.4960     0.8340     5.2880 hc         1 6PV       0.034700
     54 H12         -4.6400     1.0730     4.1080 hc         1 6PV       0.024950
     55 H13         -4.7740    -0.6890     3.9690 hc         1 6PV       0.024950
     56 H14         -6.1110     0.1370     5.8710 h1         1 6PV       0.005200
     57 H15         -4.6640     0.8870     6.5670 h1         1 6PV       0.005200
     58 H16         -2.8750    -0.5000     7.3880 h1         1 6PV       0.005200
     59 H17         -3.0120    -2.2640     7.2940 h1         1 6PV       0.005200
     60 H18         -1.4710    -1.3840     5.5640 hc         1 6PV       0.024950
     61 H19         -2.8950    -2.1460     4.8330 hc         1 6PV       0.024950
     62 H20         -1.2960     1.1580    -3.5080 ha         1 6PV       0.108000
     63 H21         -0.0380     0.9580    -5.6160 ha         1 6PV       0.100000
     64 H22          2.0060    -0.4150    -5.7080 ha         1 6PV       0.120000
     65 H23          3.3150    -1.6450     3.0970 ha         1 6PV       0.113000
     66 H24          4.5150    -1.6460     5.2380 ha         1 6PV       0.117500
     67 H25          2.1070     1.6490     6.5860 ha         1 6PV       0.117500
     68 H26          0.9110     1.6490     4.4430 ha         1 6PV       0.113000
     69 H27          3.0760     1.5810     8.1160 hn         1 6PV       0.209500
     70 H28          5.2420     1.6320    11.9940 hn         1 6PV       0.169500
     71 H29         -5.1400    -1.2670     7.4980 hn         1 6PV       0.250800
     72 H31         -1.6690     0.0720    -1.2280 hn         1 6PV       0.293800
     73 H32          4.5800    -2.4460    -4.8600 h1         1 6PV      -0.002967
     74 H33          4.0070    -0.8200    -5.2570 h1         1 6PV      -0.002967
     75 H34          3.0390    -2.2330    -5.7010 h1         1 6PV      -0.002967
     76 H35          1.5380    -1.4020    -1.5720 ha         1 6PV       0.147000
@<TRIPOS>BOND
     1     1    27 ar  
     2     1    28 ar  
     3     1    39 1   
     4     2     3 ar  
     5     2     6 1   
     6     2    28 ar  
     7     3    15 ar  
     8     3    29 1   
     9     4    35 2   
    10     5     8 2   
    11     6    16 1   
    12     7     8 1   
    13     7    36 1   
    14     7    43 1   
    15     7    44 1   
    16     8    37 1   
    17     9    10 ar  
    18     9    14 ar  
    19     9    37 1   
    20    10    11 ar  
    21    10    45 1   
    22    11    12 ar  
    23    11    46 1   
    24    12    13 ar  
    25    12    47 1   
    26    13    14 ar  
    27    13    48 1   
    28    14    49 1   
    29    15    27 ar  
    30    15    50 1   
    31    16    17 1   
    32    16    51 1   
    33    16    52 1   
    34    17    18 1   
    35    17    21 1   
    36    17    53 1   
    37    18    19 1   
    38    18    54 1   
    39    18    55 1   
    40    19    38 1   
    41    19    56 1   
    42    19    57 1   
    43    20    21 1   
    44    20    38 1   
    45    20    58 1   
    46    20    59 1   
    47    21    60 1   
    48    21    61 1   
    49    22    23 ar  
    50    22    39 1   
    51    22    42 ar  
    52    23    24 ar  
    53    23    62 1   
    54    24    25 ar  
    55    24    63 1   
    56    25    26 ar  
    57    25    64 1   
    58    26    40 1   
    59    26    42 ar  
    60    29    30 ar  
    61    29    34 ar  
    62    30    31 ar  
    63    30    65 1   
    64    31    32 ar  
    65    31    66 1   
    66    32    33 ar  
    67    32    35 1   
    68    33    34 ar  
    69    33    67 1   
    70    34    68 1   
    71    35    36 1   
    72    36    69 1   
    73    37    70 1   
    74    38    71 1   
    75    39    72 1   
    76    40    41 1   
    77    41    73 1   
    78    41    74 1   
    79    41    75 1   
    80    42    76 1   
@<TRIPOS>SUBSTRUCTURE
     1 6PV         1 TEMP              0 ****  ****    0 ROOT
