@<TRIPOS>MOLECULE
molecule
   76    80     1     0     0
SMALL
bcc


@<TRIPOS>ATOM
      1 C1           0.0000     0.0000     0.0000 ca         1 6PV       0.972900
      2 C2          -0.0940    -0.0000     2.3030 ca         1 6PV       0.741600
      3 C3           1.3110     0.0000     2.3430 cp         1 6PV      -0.370600
      4 O1           4.9950    -0.8060     7.5390 o          1 6PV      -0.617100
      5 O2           3.0470     2.6910    10.0560 o          1 6PV      -0.600100
      6 O3          -0.8160     0.0000     3.4490 os         1 6PV      -0.428100
      7 C11          4.4990     0.8950     9.5710 c3         1 6PV       0.041000
      8 C12          3.9490     1.9840    10.4550 c          1 6PV       0.649100
      9 C13          3.8760     3.1110    12.5490 ca         1 6PV       0.052600
     10 C14          2.5070     3.3430    12.5040 ca         1 6PV      -0.143000
     11 C15          1.9370     4.2650    13.3590 ca         1 6PV      -0.111000
     12 C16          2.7260     4.9580    14.2580 ca         1 6PV      -0.143000
     13 C17          4.0900     4.7300    14.3050 ca         1 6PV      -0.111000
     14 C18          4.6670     3.8090    13.4540 ca         1 6PV      -0.143000
     15 C19          2.0070     0.0000     1.1330 ca         1 6PV       0.532200
     16 C20         -2.2390     0.0000     3.3200 c3         1 6PV       0.145400
     17 C21         -2.8770     0.0010     4.7100 c3         1 6PV      -0.075700
     18 C22         -4.3970     0.1270     4.5750 c3         1 6PV      -0.072900
     19 C23         -5.0350     0.0660     5.9650 c3         1 6PV       0.159800
     20 C24         -3.2340    -1.3300     6.7920 c3         1 6PV       0.159800
     21 C25         -2.5430    -1.3110     5.4270 c3         1 6PV      -0.072900
     22 C26          0.0430    -0.1070    -2.4060 ca         1 6PV       0.192600
     23 C27         -0.3980     0.5540    -3.5460 ca         1 6PV      -0.201000
     24 C28          0.3080     0.4420    -4.7280 ca         1 6PV      -0.073000
     25 C29          1.4550    -0.3280    -4.7800 ca         1 6PV      -0.239000
     26 C30          1.9000    -0.9910    -3.6450 ca         1 6PV       0.156100
     27 N1           1.3250     0.0000     0.0000 nb         1 6PV      -0.804000
     28 N2          -0.7010     0.0010     1.1240 nb         1 6PV      -0.874000
     29 C4           2.0350    -0.0010     3.6350 cp         1 6PV       0.013000
     30 C5           3.0540    -0.9270     3.8640 ca         1 6PV      -0.127000
     31 C6           3.7240    -0.9260     5.0600 ca         1 6PV      -0.084000
     32 C7           3.3870     0.0010     6.0500 ca         1 6PV      -0.152600
     33 C8           2.3680     0.9280     5.8200 ca         1 6PV      -0.084000
     34 C9           1.7010     0.9300     4.6220 ca         1 6PV      -0.127000
     35 C10          4.1080     0.0010     7.3380 c          1 6PV       0.677700
     36 N3           3.7830     0.8960     8.2930 ns         1 6PV      -0.577900
     37 N4           4.4570     2.1730    11.6890 ns         1 6PV      -0.473100
     38 N5          -4.6860    -1.2070     6.6090 n7         1 6PV      -0.820200
     39 N6          -0.6710     0.0060    -1.2100 nu         1 6PV      -0.749300
     40 O4           3.0280    -1.7480    -3.6980 os         1 6PV      -0.326900
     41 C31          3.7050    -1.8160    -4.9550 c3         1 6PV       0.129700
     42 C32          1.1920    -0.8850    -2.4590 ca         1 6PV      -0.157000
     43 H1           5.5540     1.0720     9.3940 h1         1 6PV       0.073200
     44 H2           4.3710    -0.0640    10.0570 h1         1 6PV       0.073200
     45 H3           1.8880     2.8000    11.8000 ha         1 6PV       0.144000
     46 H4           0.8690     4.4470    13.3260 ha         1 6PV       0.133000
     47 H5           2.2750     5.6810    14.9270 ha         1 6PV       0.131000
     48 H6           4.7050     5.2750    15.0110 ha         1 6PV       0.133000
     49 H7           5.7350     3.6310    13.4910 ha         1 6PV       0.144000
     50 H8           3.0900     0.0000     1.1220 h4         1 6PV       0.042100
     51 H9          -2.5520     0.8840     2.7780 h1         1 6PV       0.051200
     52 H10         -2.5520    -0.8850     2.7790 h1         1 6PV       0.051200
     53 H11         -2.4960     0.8340     5.2880 hc         1 6PV       0.059700
     54 H12         -4.6400     1.0730     4.1080 hc         1 6PV       0.053950
     55 H13         -4.7740    -0.6890     3.9690 hc         1 6PV       0.053950
     56 H14         -6.1110     0.1370     5.8710 h1         1 6PV       0.032450
     57 H15         -4.6640     0.8870     6.5670 h1         1 6PV       0.032450
     58 H16         -2.8750    -0.5000     7.3880 h1         1 6PV       0.032450
     59 H17         -3.0120    -2.2640     7.2940 h1         1 6PV       0.032450
     60 H18         -1.4710    -1.3840     5.5640 hc         1 6PV       0.053950
     61 H19         -2.8950    -2.1460     4.8330 hc         1 6PV       0.053950
     62 H20         -1.2960     1.1580    -3.5080 ha         1 6PV       0.131000
     63 H21         -0.0380     0.9580    -5.6160 ha         1 6PV       0.132000
     64 H22          2.0060    -0.4150    -5.7080 ha         1 6PV       0.134000
     65 H23          3.3150    -1.6450     3.0970 ha         1 6PV       0.140500
     66 H24          4.5150    -1.6460     5.2380 ha         1 6PV       0.144500
     67 H25          2.1070     1.6490     6.5860 ha         1 6PV       0.144500
     68 H26          0.9110     1.6490     4.4430 ha         1 6PV       0.140500
     69 H27          3.0760     1.5810     8.1160 hn         1 6PV       0.341500
     70 H28          5.2420     1.6320    11.9940 hn         1 6PV       0.328500
     71 H29         -5.1400    -1.2670     7.4980 hn         1 6PV       0.353800
     72 H31         -1.6690     0.0720    -1.2280 hn         1 6PV       0.467800
     73 H32          4.5800    -2.4460    -4.8600 h1         1 6PV       0.040700
     74 H33          4.0070    -0.8200    -5.2570 h1         1 6PV       0.040700
     75 H34          3.0390    -2.2330    -5.7010 h1         1 6PV       0.040700
     76 H35          1.5380    -1.4020    -1.5720 ha         1 6PV       0.169000
@<TRIPOS>BOND
     1    41    40 1   
     2    40    26 1   
     3    42    26 ar  
     4    42    22 ar  
     5    26    25 ar  
     6    39    22 1   
     7    39     1 1   
     8    22    23 ar  
     9    25    24 ar  
    10     1    27 ar  
    11     1    28 ar  
    12    27    15 ar  
    13    23    24 ar  
    14    28     2 ar  
    15    15     3 ar  
    16     2     3 ar  
    17     2     6 1   
    18     3    29 1   
    19    16     6 1   
    20    16    17 1   
    21    29    30 ar  
    22    29    34 ar  
    23    30    31 ar  
    24    34    33 ar  
    25    17    18 1   
    26    17    21 1   
    27    18    19 1   
    28    31    32 ar  
    29    21    20 1   
    30    33    32 ar  
    31    32    35 1   
    32    19    38 1   
    33    38    20 1   
    34    35    36 1   
    35    35     4 2   
    36    36     7 1   
    37     7     8 1   
    38     5     8 2   
    39     8    37 1   
    40    37     9 1   
    41    10     9 ar  
    42    10    11 ar  
    43     9    14 ar  
    44    11    12 ar  
    45    14    13 ar  
    46    12    13 ar  
    47     7    43 1   
    48     7    44 1   
    49    10    45 1   
    50    11    46 1   
    51    12    47 1   
    52    13    48 1   
    53    14    49 1   
    54    15    50 1   
    55    16    51 1   
    56    16    52 1   
    57    17    53 1   
    58    18    54 1   
    59    18    55 1   
    60    19    56 1   
    61    19    57 1   
    62    20    58 1   
    63    20    59 1   
    64    21    60 1   
    65    21    61 1   
    66    23    62 1   
    67    24    63 1   
    68    25    64 1   
    69    30    65 1   
    70    31    66 1   
    71    33    67 1   
    72    34    68 1   
    73    36    69 1   
    74    37    70 1   
    75    38    71 1   
    76    39    72 1   
    77    41    73 1   
    78    41    74 1   
    79    41    75 1   
    80    42    76 1   
@<TRIPOS>SUBSTRUCTURE
     1 6PV         1 TEMP              0 ****  ****    0 ROOT
