@<TRIPOS>MOLECULE
6PW
   63    66     1     0     0
SMALL
bcc


@<TRIPOS>ATOM
      1 O1           0.0000     0.0000     0.0000 os         1 6PW      -0.390600
      2 C7           8.1880   -10.8730    -0.7560 ca         1 6PW      -0.091000
      3 O2          -2.5150    -1.1220    -0.8230 oh         1 6PW      -0.583800
      4 C6           8.4090   -10.8550    -2.1310 ca         1 6PW      -0.105000
      5 C1           7.1850    -8.7030    -0.8740 ca         1 6PW       0.407600
      6 N1           5.6030    -5.5470    -0.3220 nh         1 6PW      -0.461300
      7 C5           8.0310    -9.7870    -2.8860 ca         1 6PW      -0.081000
      8 C4           6.4090    -6.5310    -2.3640 ca         1 6PW      -0.240300
      9 C3           7.0060    -7.5640    -3.0210 ca         1 6PW      -0.031000
     10 C2           7.4110    -8.6880    -2.2730 ca         1 6PW      -0.170300
     11 C17          3.0670    -2.9540     1.8990 c          1 6PW       0.584100
     12 N2           1.8720    -2.4450     1.5400 ns         1 6PW      -0.210900
     13 C18          1.3760    -1.2220     2.1750 c3         1 6PW       0.029700
     14 C22          1.9390     0.0000     1.4430 c3         1 6PW      -0.085400
     15 C21          1.4290     0.0000     0.0000 c3         1 6PW       0.209400
     16 C20         -0.5830    -1.1440     0.6290 c3         1 6PW       0.168100
     17 C23         -2.1070    -1.0500     0.5450 c3         1 6PW       0.226400
     18 C19         -0.1550    -1.1900     2.0980 c3         1 6PW      -0.074400
     19 C14          3.5780    -4.2120     1.2460 c3         1 6PW      -0.117700
     20 C11          4.9480    -4.5710     1.8270 c3         1 6PW      -0.042000
     21 C13          5.9130    -3.4020     1.6190 c3         1 6PW      -0.010600
     22 C12          4.8090    -4.8570     3.3240 c3         1 6PW      -0.010600
     23 C10          5.4890    -5.8150     1.1180 c3         1 6PW       0.142800
     24 C15          3.7160    -3.9860    -0.2620 c3         1 6PW      -0.033400
     25 C16          4.2920    -5.2460    -0.9110 c3         1 6PW       0.147800
     26 C            6.2120    -6.6060    -0.9780 ca         1 6PW       0.496200
     27 C8           7.5890    -9.8230    -0.1290 ca         1 6PW      -0.138600
     28 C9           7.3530    -9.8670     1.3590 c3         1 6PW       0.070200
     29 N            6.5930    -7.6590    -0.2830 nb         1 6PW      -0.626000
     30 H2          -3.4540    -1.0540    -0.8750 ho         1 6PW       0.389000
     31 H3           8.8880   -11.7030    -2.6060 ha         1 6PW       0.102000
     32 H4           8.2090    -9.7860    -3.9550 ha         1 6PW       0.105000
     33 H5           6.1630    -5.6200    -2.8970 ha         1 6PW       0.122000
     34 H6           7.1650    -7.5230    -4.0920 ha         1 6PW       0.109000
     35 H7           1.3020    -2.9290     0.8750 hn         1 6PW       0.183500
     36 H8           1.6850    -1.1950     3.2130 h1         1 6PW       0.057700
     37 H9           1.6090     0.9030     1.9420 hc         1 6PW       0.038200
     38 H10          3.0210    -0.0460     1.4440 hc         1 6PW       0.038200
     39 H11          1.7890     0.8860    -0.5090 h1         1 6PW       0.009200
     40 H12          1.7890    -0.8860    -0.5090 h1         1 6PW       0.009200
     41 H13         -0.2430    -2.0420     0.1270 h1         1 6PW       0.011700
     42 H14         -2.4350    -0.1090     0.9700 h1         1 6PW      -0.007300
     43 H15         -2.5510    -1.8690     1.0980 h1         1 6PW      -0.007300
     44 H16         -0.5230    -0.3090     2.6090 hc         1 6PW       0.032200
     45 H17         -0.5590    -2.0810     2.5640 hc         1 6PW       0.032200
     46 H18          2.8860    -5.0260     1.4260 hc         1 6PW       0.040700
     47 H19          5.9330    -2.7860     2.5100 hc         1 6PW       0.016367
     48 H20          5.5830    -2.8070     0.7760 hc         1 6PW       0.016367
     49 H21          6.9080    -3.7850     1.4230 hc         1 6PW       0.016367
     50 H22          4.7650    -3.9210     3.8680 hc         1 6PW       0.016367
     51 H23          5.6620    -5.4320     3.6630 hc         1 6PW       0.016367
     52 H24          3.9000    -5.4200     3.5010 hc         1 6PW       0.016367
     53 H25          4.8090    -6.6430     1.2770 h1         1 6PW       0.033200
     54 H26          6.4660    -6.0600     1.5170 h1         1 6PW       0.033200
     55 H27          4.3820    -3.1500    -0.4420 hc         1 6PW       0.029700
     56 H28          2.7410    -3.7760    -0.6860 hc         1 6PW       0.029700
     57 H29          4.4060    -5.0820    -1.9760 h1         1 6PW       0.018200
     58 H30          3.6210    -6.0790    -0.7390 h1         1 6PW       0.018200
     59 H31          7.8690    -9.0400     1.8310 hc         1 6PW       0.010367
     60 H32          7.7280   -10.8010     1.7580 hc         1 6PW       0.010367
     61 H33          6.2910    -9.7900     1.5590 hc         1 6PW       0.010367
     62 H1           8.4980   -11.7340    -0.1770 ha         1 6PW       0.107000
     63 O            3.7320    -2.3990     2.7480 o          1 6PW      -0.641100
@<TRIPOS>BOND
     1     1    15 1   
     2     1    16 1   
     3     2     4 ar  
     4     2    27 ar  
     5     2    62 1   
     6     3    17 1   
     7     3    30 1   
     8     4     7 ar  
     9     4    31 1   
    10     5    10 ar  
    11     5    27 ar  
    12     5    29 ar  
    13     6    23 1   
    14     6    25 1   
    15     6    26 1   
    16     7    10 ar  
    17     7    32 1   
    18     8     9 ar  
    19     8    26 ar  
    20     8    33 1   
    21     9    10 ar  
    22     9    34 1   
    23    11    12 1   
    24    11    19 1   
    25    11    63 2   
    26    12    13 1   
    27    12    35 1   
    28    13    14 1   
    29    13    18 1   
    30    13    36 1   
    31    14    15 1   
    32    14    37 1   
    33    14    38 1   
    34    15    39 1   
    35    15    40 1   
    36    16    17 1   
    37    16    18 1   
    38    16    41 1   
    39    17    42 1   
    40    17    43 1   
    41    18    44 1   
    42    18    45 1   
    43    19    20 1   
    44    19    24 1   
    45    19    46 1   
    46    20    21 1   
    47    20    22 1   
    48    20    23 1   
    49    21    47 1   
    50    21    48 1   
    51    21    49 1   
    52    22    50 1   
    53    22    51 1   
    54    22    52 1   
    55    23    53 1   
    56    23    54 1   
    57    24    25 1   
    58    24    55 1   
    59    24    56 1   
    60    25    57 1   
    61    25    58 1   
    62    26    29 ar  
    63    27    28 1   
    64    28    59 1   
    65    28    60 1   
    66    28    61 1   
@<TRIPOS>SUBSTRUCTURE
     1 6PW         1 TEMP              0 ****  ****    0 ROOT
