@<TRIPOS>MOLECULE
molecule
   63    66     1     0     0
SMALL
bcc


@<TRIPOS>ATOM
      1 O1           0.0000     0.0000     0.0000 os         1 6PW      -0.407600
      2 C7           8.1880   -10.8730    -0.7560 ca         1 6PW      -0.115000
      3 O2          -2.5150    -1.1220    -0.8230 oh         1 6PW      -0.600800
      4 C6           8.4090   -10.8550    -2.1310 ca         1 6PW      -0.134000
      5 C1           7.1850    -8.7030    -0.8740 ca         1 6PW       0.448600
      6 N1           5.6030    -5.5470    -0.3220 nh         1 6PW      -0.697300
      7 C5           8.0310    -9.7870    -2.8860 ca         1 6PW      -0.108000
      8 C4           6.4090    -6.5310    -2.3640 ca         1 6PW      -0.262300
      9 C3           7.0060    -7.5640    -3.0210 ca         1 6PW      -0.063000
     10 C2           7.4110    -8.6880    -2.2730 ca         1 6PW      -0.175300
     11 C17          3.0670    -2.9540     1.8990 c          1 6PW       0.665100
     12 N2           1.8720    -2.4450     1.5400 ns         1 6PW      -0.588900
     13 C18          1.3760    -1.2220     2.1750 c3         1 6PW       0.118700
     14 C22          1.9390     0.0000     1.4430 c3         1 6PW      -0.132400
     15 C21          1.4290     0.0000     0.0000 c3         1 6PW       0.136400
     16 C20         -0.5830    -1.1440     0.6290 c3         1 6PW       0.148100
     17 C23         -2.1070    -1.0500     0.5450 c3         1 6PW       0.149400
     18 C19         -0.1550    -1.1900     2.0980 c3         1 6PW      -0.128400
     19 C14          3.5780    -4.2120     1.2460 c3         1 6PW      -0.139700
     20 C11          4.9480    -4.5710     1.8270 c3         1 6PW      -0.049000
     21 C13          5.9130    -3.4020     1.6190 c3         1 6PW      -0.080600
     22 C12          4.8090    -4.8570     3.3240 c3         1 6PW      -0.080600
     23 C10          5.4890    -5.8150     1.1180 c3         1 6PW       0.181800
     24 C15          3.7160    -3.9860    -0.2620 c3         1 6PW      -0.078400
     25 C16          4.2920    -5.2460    -0.9110 c3         1 6PW       0.173800
     26 C            6.2120    -6.6060    -0.9780 ca         1 6PW       0.626200
     27 C8           7.5890    -9.8230    -0.1290 ca         1 6PW      -0.128600
     28 C9           7.3530    -9.8670     1.3590 c3         1 6PW      -0.035800
     29 N            6.5930    -7.6590    -0.2830 nb         1 6PW      -0.740000
     30 H2          -3.4540    -1.0540    -0.8750 ho         1 6PW       0.403000
     31 H3           8.8880   -11.7030    -2.6060 ha         1 6PW       0.129000
     32 H4           8.2090    -9.7860    -3.9550 ha         1 6PW       0.131000
     33 H5           6.1630    -5.6200    -2.8970 ha         1 6PW       0.143000
     34 H6           7.1650    -7.5230    -4.0920 ha         1 6PW       0.140000
     35 H7           1.3020    -2.9290     0.8750 hn         1 6PW       0.314500
     36 H8           1.6850    -1.1950     3.2130 h1         1 6PW       0.083700
     37 H9           1.6090     0.9030     1.9420 hc         1 6PW       0.064700
     38 H10          3.0210    -0.0460     1.4440 hc         1 6PW       0.064700
     39 H11          1.7890     0.8860    -0.5090 h1         1 6PW       0.049700
     40 H12          1.7890    -0.8860    -0.5090 h1         1 6PW       0.049700
     41 H13         -0.2430    -2.0420     0.1270 h1         1 6PW       0.037700
     42 H14         -2.4350    -0.1090     0.9700 h1         1 6PW       0.030200
     43 H15         -2.5510    -1.8690     1.0980 h1         1 6PW       0.030200
     44 H16         -0.5230    -0.3090     2.6090 hc         1 6PW       0.060700
     45 H17         -0.5590    -2.0810     2.5640 hc         1 6PW       0.060700
     46 H18          2.8860    -5.0260     1.4260 hc         1 6PW       0.065700
     47 H19          5.9330    -2.7860     2.5100 hc         1 6PW       0.042700
     48 H20          5.5830    -2.8070     0.7760 hc         1 6PW       0.042700
     49 H21          6.9080    -3.7850     1.4230 hc         1 6PW       0.042700
     50 H22          4.7650    -3.9210     3.8680 hc         1 6PW       0.042700
     51 H23          5.6620    -5.4320     3.6630 hc         1 6PW       0.042700
     52 H24          3.9000    -5.4200     3.5010 hc         1 6PW       0.042700
     53 H25          4.8090    -6.6430     1.2770 h1         1 6PW       0.058200
     54 H26          6.4660    -6.0600     1.5170 h1         1 6PW       0.058200
     55 H27          4.3820    -3.1500    -0.4420 hc         1 6PW       0.057200
     56 H28          2.7410    -3.7760    -0.6860 hc         1 6PW       0.057200
     57 H29          4.4060    -5.0820    -1.9760 h1         1 6PW       0.044200
     58 H30          3.6210    -6.0790    -0.7390 h1         1 6PW       0.044200
     59 H31          7.8690    -9.0400     1.8310 hc         1 6PW       0.046033
     60 H32          7.7280   -10.8010     1.7580 hc         1 6PW       0.046033
     61 H33          6.2910    -9.7900     1.5590 hc         1 6PW       0.046033
     62 H1           8.4980   -11.7340    -0.1770 ha         1 6PW       0.133000
     63 O            3.7320    -2.3990     2.7480 o          1 6PW      -0.606100
@<TRIPOS>BOND
     1     4     7 ar  
     2     4     2 ar  
     3     7    10 ar  
     4     2    27 ar  
     5    27     5 ar  
     6    27    28 1   
     7    10     5 ar  
     8    10     9 ar  
     9     5    29 ar  
    10     9     8 ar  
    11    29    26 ar  
    12     8    26 ar  
    13    26     6 1   
    14     6    23 1   
    15     6    25 1   
    16    23    20 1   
    17    25    24 1   
    18    21    20 1   
    19    20    22 1   
    20    20    19 1   
    21    24    19 1   
    22    19    11 1   
    23    11    63 2   
    24    11    12 1   
    25    12    13 1   
    26    13    18 1   
    27    13    14 1   
    28    18    16 1   
    29    16    17 1   
    30    16     1 1   
    31    17     3 1   
    32    14    15 1   
    33    15     1 1   
    34     2    62 1   
    35     3    30 1   
    36     4    31 1   
    37     7    32 1   
    38     8    33 1   
    39     9    34 1   
    40    12    35 1   
    41    13    36 1   
    42    14    37 1   
    43    14    38 1   
    44    15    39 1   
    45    15    40 1   
    46    16    41 1   
    47    17    42 1   
    48    17    43 1   
    49    18    44 1   
    50    18    45 1   
    51    19    46 1   
    52    21    47 1   
    53    21    48 1   
    54    21    49 1   
    55    22    50 1   
    56    22    51 1   
    57    22    52 1   
    58    23    53 1   
    59    23    54 1   
    60    24    55 1   
    61    24    56 1   
    62    25    57 1   
    63    25    58 1   
    64    28    59 1   
    65    28    60 1   
    66    28    61 1   
@<TRIPOS>SUBSTRUCTURE
     1 6PW         1 TEMP              0 ****  ****    0 ROOT
