@<TRIPOS>MOLECULE
molecule
   68    69     1     0     0
SMALL
bcc


@<TRIPOS>ATOM
      1 C1           1.4680     0.0000     0.0000 c3         1 6PX       0.021500
      2 C2           1.9710     0.0000     1.4200 c          1 6PX       0.624100
      3 C4           1.5740     1.1880    -2.1950 c3         1 6PX      -0.124400
      4 C6           2.0480     3.3980    -5.1810 c2         1 6PX       0.691100
      5 C8           3.7280    -0.3100     2.9980 ca         1 6PX      -0.028400
      6 C10          4.7330    -0.1180     5.5850 ca         1 6PX      -0.077000
      7 C13          2.8870    -0.5230     4.0740 ca         1 6PX      -0.058000
      8 C19          4.7870    -2.6500     9.2500 ca         1 6PX      -0.111500
      9 C21          5.3600    -3.8780     8.9860 ca         1 6PX      -0.150500
     10 N1           0.0000     0.0000     0.0000 nz         1 6PX      -0.796600
     11 O1           1.2420     0.3590     2.3220 o          1 6PX      -0.563100
     12 C3           1.9790     1.2480    -0.7210 c3         1 6PX      -0.115400
     13 C5           2.0840     2.4370    -2.9170 c3         1 6PX       0.279800
     14 N2           1.6970     2.3770    -4.3280 nu         1 6PX      -0.873200
     15 N3           2.7250     4.4170    -4.7330 n2         1 6PX      -0.764100
     16 N4           1.6840     3.3430    -6.5050 nz         1 6PX      -0.806600
     17 N5           3.2300    -0.4000     1.6910 ns         1 6PX      -0.412100
     18 O2           1.3230    -0.9250     6.3460 o          1 6PX      -0.609100
     19 C9           5.0730    -0.0010     3.2140 ca         1 6PX       0.174600
     20 N6           5.9200     0.2130     2.1300 nv         1 6PX      -0.997200
     21 C11          3.3880    -0.4280     5.3760 ca         1 6PX      -0.120600
     22 C12          5.5680     0.0930     4.5100 ca         1 6PX      -0.128000
     23 N7           2.9770    -0.5630     7.7840 ns         1 6PX      -0.555900
     24 C14          2.0900    -0.7880     8.9280 c3         1 6PX       0.145700
     25 C15          1.3710     0.4930     9.2650 c          1 6PX       0.613100
     26 O3           1.5770     1.4910     8.6160 o          1 6PX      -0.533000
     27 C16          2.9170    -1.2400    10.1330 c3         1 6PX      -0.190100
     28 C17          3.5380    -2.5810     9.8400 ca         1 6PX      -0.080300
     29 C18          2.8580    -3.7430    10.1620 ca         1 6PX      -0.111500
     30 C20          3.4260    -4.9730     9.8940 ca         1 6PX      -0.150500
     31 C22          4.6840    -5.0440     9.3130 ca         1 6PX       0.117100
     32 O4           5.2460    -6.2540     9.0530 oh         1 6PX      -0.520100
     33 O5           0.5000     0.5250    10.2860 os         1 6PX      -0.429900
     34 H1           1.8290    -0.8850    -0.5100 hx         1 6PX       0.118700
     35 H2           0.4930     1.1610    -2.2650 hc         1 6PX       0.050700
     36 H3           1.9570     0.1790    -2.2890 hc         1 6PX       0.050700
     37 H4           5.1210    -0.0440     6.5940 ha         1 6PX       0.150000
     38 H5           1.8440    -0.7640     3.9090 ha         1 6PX       0.176000
     39 H8          -0.7800     2.0620     9.7100 h1         1 6PX       0.054700
     40 H9          -0.7700     1.7000    11.4420 h1         1 6PX       0.054700
     41 H10          0.5910     2.5600    10.7100 h1         1 6PX       0.054700
     42 H11         -0.3340     0.9150     0.2300 hn         1 6PX       0.466467
     43 H12         -0.3340    -0.2590    -0.9070 hn         1 6PX       0.466467
     44 H14          1.5470     2.1310    -0.2650 hc         1 6PX       0.100700
     45 H15          3.0580     1.2940    -0.6450 hc         1 6PX       0.100700
     46 H16          3.1640     2.4820    -2.8410 h1         1 6PX       0.086700
     47 H17          1.6530     3.3190    -2.4610 h1         1 6PX       0.086700
     48 H18          1.2140     1.5750    -4.6810 hn         1 6PX       0.455800
     49 H19          2.9810     5.1610    -5.3520 hn         1 6PX       0.456400
     50 H20          0.7370     3.0290    -6.5780 hn         1 6PX       0.474467
     51 H21          2.2850     2.7070    -6.9900 hn         1 6PX       0.474467
     52 H22          3.7930    -0.8020     0.9680 hn         1 6PX       0.333500
     53 H23          6.3800    -0.5610     1.6930 hn         1 6PX       0.434300
     54 H24          6.0930     1.1450     1.8060 hn         1 6PX       0.434300
     55 H25          6.6120     0.3340     4.6740 ha         1 6PX       0.162000
     56 H26          3.9290    -0.2960     7.9350 hn         1 6PX       0.333500
     57 H27          1.3660    -1.5540     8.6790 h1         1 6PX       0.088700
     58 H28          2.6770    -0.9460    11.1470 hc         1 6PX       0.113700
     59 H29          2.0370    -1.7970     9.8360 hc         1 6PX       0.113700
     60 H30          1.8920    -3.6870    10.6490 ha         1 6PX       0.133000
     61 H31          2.8950    -5.8820    10.1500 ha         1 6PX       0.145500
     62 H32          5.5940    -6.6170     9.8510 ho         1 6PX       0.429000
     63 C7           2.4940    -0.6540     6.5280 c          1 6PX       0.680700
     64 H6           5.3310    -1.7400     9.0290 ha         1 6PX       0.133000
     65 C23         -0.1560     1.7920    10.5540 c3         1 6PX       0.140700
     66 H13         -0.3340    -0.6570     0.6780 hn         1 6PX       0.466467
     67 H43          1.7640     4.2550    -6.9110 hn         1 6PX       0.474467
     68 H7           6.3910    -3.9250     8.6550 ha         1 6PX       0.145500
@<TRIPOS>BOND
     1    32    31 1
     2    11     2 2
     3    10     1 1
     4    31     9 ar
     5    31    30 ar
     6     9     8 ar
     7     2     1 1
     8     2    17 1
     9     1    12 1
    10    18    63 2
    11    17     5 1
    12    30    29 ar
    13     7     5 ar
    14     7    21 ar
    15     8    28 ar
    16     5    19 ar
    17    63    21 1
    18    63    23 1
    19    21     6 ar
    20    12     3 1
    21     3    13 1
    22    19    20 1
    23    19    22 ar
    24     6    22 ar
    25    29    28 ar
    26    28    27 1
    27    23    24 1
    28    13    14 1
    29    27    24 1
    30    14     4 1
    31    24    25 1
    32    15     4 2
    33     4    16 1
    34    25    26 2
    35    25    33 1
    36    33    65 1
    37     1    34 1
    38     3    35 1
    39     3    36 1
    40     6    37 1
    41     7    38 1
    42     8    64 1
    43     9    68 1
    44    65    39 1
    45    65    40 1
    46    65    41 1
    47    10    42 1
    48    10    43 1
    49    12    44 1
    50    12    45 1
    51    13    46 1
    52    13    47 1
    53    14    48 1
    54    15    49 1
    55    16    50 1
    56    16    51 1
    57    17    52 1
    58    20    53 1
    59    20    54 1
    60    22    55 1
    61    23    56 1
    62    24    57 1
    63    27    58 1
    64    27    59 1
    65    29    60 1
    66    30    61 1
    67    32    62 1
    68    66    10 1
    69    67    16 1
@<TRIPOS>SUBSTRUCTURE
     1 6PX         1 TEMP              0 ****  ****    0 ROOT
