@<TRIPOS>MOLECULE
6PX
   68    69     1     0     0
SMALL
bcc


@<TRIPOS>ATOM
      1 C1           1.4680     0.0000     0.0000 c3         1 6PX      -0.160500
      2 C2           1.9710     0.0000     1.4200 c          1 6PX       0.505100
      3 C4           1.5740     1.1880    -2.1950 c3         1 6PX      -0.053400
      4 C6           2.0480     3.3980    -5.1810 c2         1 6PX       0.242100
      5 C8           3.7280    -0.3100     2.9980 ca         1 6PX      -0.197400
      6 C10          4.7330    -0.1180     5.5850 ca         1 6PX      -0.042000
      7 C13          2.8870    -0.5230     4.0740 ca         1 6PX      -0.019000
      8 C19          4.7870    -2.6500     9.2500 ca         1 6PX      -0.077000
      9 C21          5.3600    -3.8780     8.9860 ca         1 6PX      -0.145500
     10 N1           0.0000     0.0000     0.0000 nz         1 6PX       0.092400
     11 O1           1.2420     0.3590     2.3220 o          1 6PX      -0.611100
     12 C3           1.9790     1.2480    -0.7210 c3         1 6PX      -0.047400
     13 C5           2.0840     2.4370    -2.9170 c3         1 6PX       0.204800
     14 N2           1.6970     2.3770    -4.3280 nu         1 6PX      -0.510200
     15 N3           2.7250     4.4170    -4.7330 n2         1 6PX      -0.572100
     16 N4           1.6840     3.3430    -6.5050 nz         1 6PX       0.199400
     17 N5           3.2300    -0.4000     1.6910 ns         1 6PX       0.092900
     18 O2           1.3230    -0.9250     6.3460 o          1 6PX      -0.656100
     19 C9           5.0730    -0.0010     3.2140 ca         1 6PX       0.047600
     20 N6           5.9200     0.2130     2.1300 nv         1 6PX      -0.568200
     21 C11          3.3880    -0.4280     5.3760 ca         1 6PX      -0.123600
     22 C12          5.5680     0.0930     4.5100 ca         1 6PX      -0.095000
     23 N7           2.9770    -0.5630     7.7840 ns         1 6PX      -0.170900
     24 C14          2.0900    -0.7880     8.9280 c3         1 6PX       0.064700
     25 C15          1.3710     0.4930     9.2650 c          1 6PX       0.677100
     26 O3           1.5770     1.4910     8.6160 o          1 6PX      -0.576000
     27 C16          2.9170    -1.2400    10.1330 c3         1 6PX      -0.156100
     28 C17          3.5380    -2.5810     9.8400 ca         1 6PX      -0.091300
     29 C18          2.8580    -3.7430    10.1620 ca         1 6PX      -0.077000
     30 C20          3.4260    -4.9730     9.8940 ca         1 6PX      -0.145500
     31 C22          4.6840    -5.0440     9.3130 ca         1 6PX       0.146100
     32 O4           5.2460    -6.2540     9.0530 oh         1 6PX      -0.486100
     33 O5           0.5000     0.5250    10.2860 os         1 6PX      -0.413900
     34 H1           1.8290    -0.8850    -0.5100 hx         1 6PX       0.092700
     35 H2           0.4930     1.1610    -2.2650 hc         1 6PX       0.025200
     36 H3           1.9570     0.1790    -2.2890 hc         1 6PX       0.025200
     37 H4           5.1210    -0.0440     6.5940 ha         1 6PX       0.121000
     38 H5           1.8440    -0.7640     3.9090 ha         1 6PX       0.153000
     39 H8          -0.7400     2.0860     9.6900 h1         1 6PX       0.006033
     40 H9          -0.8100     1.6860    11.4120 h1         1 6PX       0.006033
     41 H10          0.5900     2.5490    10.7600 h1         1 6PX       0.006033
     42 H11         -0.3340    -0.5920     0.7350 hn         1 6PX       0.233133
     43 H12         -0.3340     0.9320     0.1450 hn         1 6PX       0.233133
     44 H14          3.0580     1.2930    -0.6450 hc         1 6PX       0.062700
     45 H15          1.5480     2.1310    -0.2640 hc         1 6PX       0.062700
     46 H16          3.1640     2.4820    -2.8410 h1         1 6PX       0.039700
     47 H17          1.6530     3.3190    -2.4610 h1         1 6PX       0.039700
     48 H18          1.2090     1.5780    -4.6800 hn         1 6PX       0.307800
     49 H19          2.9900     4.4590    -3.7690 hn         1 6PX       0.379400
     50 H20          2.0000     4.1700    -6.9720 hn         1 6PX       0.228800
     51 H21          2.1000     2.5400    -6.9320 hn         1 6PX       0.228800
     52 H22          3.7920    -0.8040     0.9680 hn         1 6PX       0.163500
     53 H23          6.3830    -0.5610     1.6960 hn         1 6PX       0.280300
     54 H24          6.1020     1.1450     1.8140 hn         1 6PX       0.280300
     55 H25          6.6120     0.3340     4.6740 ha         1 6PX       0.128000
     56 H26          3.9290    -0.2950     7.9350 hn         1 6PX       0.196500
     57 H27          1.3660    -1.5540     8.6790 h1         1 6PX       0.058700
     58 H28          2.6770    -0.9460    11.1470 hc         1 6PX       0.085700
     59 H29          2.0370    -1.7970     9.8360 hc         1 6PX       0.085700
     60 H30          1.9000    -3.6870    10.6640 ha         1 6PX       0.107500
     61 H31          2.9100    -5.8820    10.1800 ha         1 6PX       0.121000
     62 H32          4.6850    -6.7440     8.4740 ho         1 6PX       0.405000
     63 C7           2.4940    -0.6540     6.5280 c          1 6PX       0.598700
     64 H6           5.3320    -1.7400     9.0300 ha         1 6PX       0.107500
     65 C23         -0.1560     1.7920    10.5540 c3         1 6PX       0.273700
     66 H13         -0.3340    -0.3410    -0.8800 hn         1 6PX       0.233133
     67 H43          0.6880     3.2780    -6.5750 hn         1 6PX       0.228800
     68 H7           6.4040    -3.9340     8.7020 ha         1 6PX       0.121000
@<TRIPOS>BOND
     1     1     2 1   
     2     1    10 1   
     3     1    12 1   
     4     1    34 1   
     5     2    11 2   
     6     2    17 1   
     7     3    12 1   
     8     3    13 1   
     9     3    35 1   
    10     3    36 1   
    11     4    14 1   
    12     4    15 2   
    13     4    16 1   
    14     5     7 ar  
    15     5    17 1   
    16     5    19 ar  
    17     6    21 ar  
    18     6    22 ar  
    19     6    37 1   
    20     7    21 ar  
    21     7    38 1   
    22     8     9 ar  
    23     8    28 ar  
    24     8    64 1   
    25     9    31 ar  
    26     9    68 1   
    27    10    42 1   
    28    10    43 1   
    29    10    66 1   
    30    12    44 1   
    31    12    45 1   
    32    13    14 1   
    33    13    46 1   
    34    13    47 1   
    35    14    48 1   
    36    15    49 1   
    37    16    50 1   
    38    16    51 1   
    39    16    67 1   
    40    17    52 1   
    41    18    63 2   
    42    19    20 1   
    43    19    22 ar  
    44    20    53 1   
    45    20    54 1   
    46    21    63 1   
    47    22    55 1   
    48    23    24 1   
    49    23    56 1   
    50    23    63 1   
    51    24    25 1   
    52    24    27 1   
    53    24    57 1   
    54    25    26 2   
    55    25    33 1   
    56    27    28 1   
    57    27    58 1   
    58    27    59 1   
    59    28    29 ar  
    60    29    30 ar  
    61    29    60 1   
    62    30    31 ar  
    63    30    61 1   
    64    31    32 1   
    65    32    62 1   
    66    33    65 1   
    67    39    65 1   
    68    40    65 1   
    69    41    65 1   
@<TRIPOS>SUBSTRUCTURE
     1 6PX         1 TEMP              0 ****  ****    0 ROOT
