@<TRIPOS>MOLECULE
molecule
   57    57     1     0     0
SMALL
bcc


@<TRIPOS>ATOM
      1 N12          0.0000     0.0000     0.0000 nu         1 6PY      -0.814200
      2 C17         -0.7500    -8.5810    -1.4330 c3         1 6PY       0.128700
      3 C20          2.3370    -6.8720    -2.6400 c3         1 6PY       0.136000
      4 C21          3.1550    -4.7240    -1.8300 c          1 6PY       0.749100
      5 C28          0.3650    -1.3240    -4.1940 c3         1 6PY      -0.170100
      6 C01          3.4760    -1.3960    -0.4310 c3         1 6PY       0.141100
      7 C02          1.9750    -1.2520    -0.7220 c3         1 6PY       0.072700
      8 C03          1.4650     0.0000     0.0000 c3         1 6PY       0.256700
      9 C04          1.9670     0.0000     1.4190 c2         1 6PY      -0.447200
     10 C05          2.9810    -0.7560     1.8110 ce         1 6PY       0.163900
     11 O06          3.6440    -1.5940     0.9760 os         1 6PY      -0.264900
     12 C07          4.0340    -2.6000    -1.1920 c3         1 6PY       0.187100
     13 C08          5.4900    -2.8310    -0.7810 c3         1 6PY       0.131100
     14 C09          6.0500    -4.0350    -1.5410 c3         1 6PY       0.110400
     15 O10          7.3690    -4.3220    -1.0740 oh         1 6PY      -0.615800
     16 O11          3.2490    -3.7800    -0.8760 os         1 6PY      -0.415900
     17 O13          6.2640    -1.6700    -1.0920 oh         1 6PY      -0.621800
     18 C14         -0.6880     1.1870     0.0980 c2         1 6PY       0.707100
     19 N15         -0.0000     2.3730     0.2010 nz         1 6PY      -0.807600
     20 N16         -1.9920     1.1880     0.0920 n2         1 6PY      -0.824100
     21 O18          0.1410    -7.5720    -1.9140 os         1 6PY      -0.429600
     22 C19          1.4780    -8.0300    -2.1270 c3         1 6PY       0.116400
     23 N22          2.4400    -5.8440    -1.6010 ns         1 6PY      -0.561900
     24 O23          3.7130    -4.5670    -2.8980 o          1 6PY      -0.633000
     25 N25          1.7630    -1.1120    -2.1650 ns         1 6PY      -0.592900
     26 O26         -0.3030    -1.9050    -2.0060 o          1 6PY      -0.613100
     27 C27          0.5830    -1.4690    -2.7090 c          1 6PY       0.661100
     28 C29          3.4090    -0.6840     3.2180 c          1 6PY       0.875800
     29 O30          4.4380    -1.4410     3.6500 o          1 6PY      -0.783300
     30 O31          2.8340     0.0580     3.9900 o          1 6PY      -0.783300
     31 H1          -0.4990    -0.8680     0.0080 hn         1 6PY       0.524800
     32 H2          -0.3210    -9.0540    -0.5580 h1         1 6PY       0.033033
     33 H3          -1.6990    -8.1290    -1.1710 h1         1 6PY       0.033033
     34 H4          -0.9050    -9.3240    -2.2060 h1         1 6PY       0.033033
     35 H5           3.3290    -7.2370    -2.8800 h1         1 6PY       0.062200
     36 H6           1.8830    -6.4500    -3.5280 h1         1 6PY       0.062200
     37 H7           0.9080    -2.1020    -4.7160 hc         1 6PY       0.064700
     38 H8           0.7210    -0.3540    -4.5190 hc         1 6PY       0.064700
     39 H9          -0.6920    -1.4130    -4.4140 hc         1 6PY       0.064700
     40 H10          3.9930    -0.4940    -0.7350 h1         1 6PY       0.072700
     41 H11          1.4480    -2.1240    -0.3530 h1         1 6PY       0.124700
     42 H12          1.8310     0.8830    -0.5100 h1         1 6PY       0.009700
     43 H13          1.4810     0.6410     2.1450 ha         1 6PY       0.153000
     44 H14          3.9860    -2.4080    -2.2570 h1         1 6PY       0.082700
     45 H15          5.5380    -3.0230     0.2840 h1         1 6PY       0.096700
     46 H16          6.0830    -3.8090    -2.6000 h1         1 6PY       0.038700
     47 H17          5.4130    -4.8950    -1.3750 h1         1 6PY       0.038700
     48 H18          7.7810    -4.9400    -1.6550 ho         1 6PY       0.405000
     49 H19          7.0660    -1.6840    -0.5960 ho         1 6PY       0.432000
     50 H20          0.6520     2.4480    -0.5540 hn         1 6PY       0.464133
     51 H21          0.4940     2.3980     1.0720 hn         1 6PY       0.464133
     52 H22         -2.4930     2.0510     0.1640 hn         1 6PY       0.418400
     53 H23          1.8870    -8.3980    -1.1940 h1         1 6PY       0.036700
     54 H24          1.4730    -8.8280    -2.8590 h1         1 6PY       0.036700
     55 H25          1.9970    -5.9820    -0.7150 hn         1 6PY       0.338500
     56 H26          2.4670    -0.6830    -2.7330 hn         1 6PY       0.318500
     57 H153        -0.6460     3.1360     0.1690 hn         1 6PY       0.464133
@<TRIPOS>BOND
     1    20    18 2   
     2     5    27 1   
     3    17    13 1   
     4    25    27 1   
     5    25     7 1   
     6    18    19 1   
     7    18     1 1   
     8    27    26 2   
     9    15    14 1   
    10     8     7 1   
    11     8     1 1   
    12     8     9 1   
    13     7     6 1   
    14     6    12 1   
    15     6    11 1   
    16    13    12 1   
    17    13    14 1   
    18    12    16 1   
    19    24     4 2   
    20     9    10 2   
    21    11    10 1   
    22    10    28 1   
    23    16     4 1   
    24     4    23 1   
    25    28    30 1   
    26    28    29 1   
    27    23     3 1   
    28     3    22 1   
    29    22    21 1   
    30    21     2 1   
    31     1    31 1   
    32     2    32 1   
    33     2    33 1   
    34     2    34 1   
    35     3    35 1   
    36     3    36 1   
    37     5    37 1   
    38     5    38 1   
    39     5    39 1   
    40     6    40 1   
    41     7    41 1   
    42     8    42 1   
    43     9    43 1   
    44    12    44 1   
    45    13    45 1   
    46    14    46 1   
    47    14    47 1   
    48    15    48 1   
    49    17    49 1   
    50    19    50 1   
    51    19    51 1   
    52    20    52 1   
    53    22    53 1   
    54    22    54 1   
    55    23    55 1   
    56    25    56 1   
    57    57    19 1   
@<TRIPOS>SUBSTRUCTURE
     1 6PY         1 TEMP              0 ****  ****    0 ROOT
