@<TRIPOS>MOLECULE
molecule
   45    48     1     0     0
SMALL
bcc


@<TRIPOS>ATOM
      1 C18          0.0000     0.0000     0.0000 ca         1 6Q2       0.187600
      2 C9           1.1690    -2.4710    -3.1840 cp         1 6Q2       0.546800
      3 C11          2.2650    -3.4550    -3.0140 cp         1 6Q2      -0.156500
      4 C16          2.6830    -4.2300    -4.0950 ca         1 6Q2      -0.094000
      5 C12          2.8850    -3.6040    -1.7750 ca         1 6Q2      -0.094000
      6 C6          -0.8500    -0.6740    -3.5390 ca         1 6Q2      -0.360900
      7 C5          -1.9460     0.2740    -3.8000 c          1 6Q2       0.739100
      8 C20          2.0790     0.0000     1.2010 ca         1 6Q2       0.160100
      9 C3          -2.5100    -1.0340    -5.7880 c3         1 6Q2       0.106000
     10 C13          3.9040    -4.5220    -1.6230 ca         1 6Q2      -0.138500
     11 C14          4.3110    -5.2920    -2.6970 ca         1 6Q2      -0.115000
     12 C15          3.7040    -5.1440    -3.9310 ca         1 6Q2      -0.138500
     13 O24         -2.1590     1.1960    -3.0360 o          1 6Q2      -0.673500
     14 C1          -0.3880    -1.4850    -4.5800 ca         1 6Q2       0.501600
     15 C2          -1.0260    -1.3560    -5.9400 c3         1 6Q2      -0.147700
     16 N4          -2.7090     0.1070    -4.8990 ns         1 6Q2      -0.579900
     17 N10          0.5870    -2.3410    -4.3730 nb         1 6Q2      -0.741000
     18 C8           0.7650    -1.7060    -2.0960 ca         1 6Q2      -0.332300
     19 C7          -0.2670    -0.7840    -2.2640 ca         1 6Q2       0.280600
     20 N17         -0.7000     0.0050    -1.2100 nu         1 6Q2      -0.654000
     21 C19          1.3890     0.0000     0.0000 ca         1 6Q2      -0.200000
     22 O25          3.4380     0.0010     1.2050 os         1 6Q2      -0.327900
     23 C26          4.0840     0.0010     2.4790 c3         1 6Q2       0.129700
     24 C21          1.3820     0.0010     2.4020 ca         1 6Q2      -0.242000
     25 C22         -0.0000    -0.0000     2.4000 ca         1 6Q2      -0.067000
     26 C23         -0.6930    -0.0000     1.2050 ca         1 6Q2      -0.198000
     27 H1           2.2080    -4.1160    -5.0610 ha         1 6Q2       0.145500
     28 H2           2.5670    -3.0020    -0.9330 ha         1 6Q2       0.145500
     29 H3          -3.0200    -1.8970    -5.3770 h1         1 6Q2       0.049200
     30 H4          -2.9240    -0.8010    -6.7620 h1         1 6Q2       0.049200
     31 H5           4.3860    -4.6400    -0.6590 ha         1 6Q2       0.131000
     32 H6           5.1120    -6.0110    -2.5730 ha         1 6Q2       0.128000
     33 H7           4.0280    -5.7490    -4.7690 ha         1 6Q2       0.131000
     34 H8          -0.9150    -2.2900    -6.4770 hc         1 6Q2       0.075700
     35 H9          -0.5410    -0.5590    -6.4890 hc         1 6Q2       0.075700
     36 H10         -3.4240     0.7760    -5.1080 hn         1 6Q2       0.329500
     37 H11          1.1130    -1.9540    -1.1010 ha         1 6Q2       0.164000
     38 H12         -1.5320     0.5530    -1.3040 hn         1 6Q2       0.490800
     39 H13          1.9300     0.0890    -0.9340 ha         1 6Q2       0.161000
     40 H14          3.7990     0.8910     3.0280 h1         1 6Q2       0.042033
     41 H15          5.1580    -0.0090     2.3400 h1         1 6Q2       0.042033
     42 H16          3.7830    -0.8780     3.0360 h1         1 6Q2       0.042033
     43 H17          1.9220     0.0010     3.3410 ha         1 6Q2       0.136000
     44 H18         -0.5420     0.0000     3.3380 ha         1 6Q2       0.133000
     45 H19         -1.7760    -0.0010     1.2060 ha         1 6Q2       0.138000
@<TRIPOS>BOND
     1     9    15 1   
     2     9    16 1   
     3    15    14 1   
     4    16     7 1   
     5    14    17 ar  
     6    14     6 ar  
     7    17     2 ar  
     8     5    10 ar  
     9     5     3 ar  
    10     7     6 1   
    11     7    13 2   
    12    10    11 ar  
    13     6    19 ar  
    14     2     3 1   
    15     2    18 ar  
    16     3     4 ar  
    17    11    12 ar  
    18    19    18 ar  
    19    19    20 1   
    20     4    12 ar  
    21    20     1 1   
    22     1    26 ar  
    23     1    21 ar  
    24    26    25 ar  
    25    21     8 ar  
    26    25    24 ar  
    27     8    24 ar  
    28     8    22 1   
    29    23    22 1   
    30     4    27 1   
    31     5    28 1   
    32     9    29 1   
    33     9    30 1   
    34    10    31 1   
    35    11    32 1   
    36    12    33 1   
    37    15    34 1   
    38    15    35 1   
    39    16    36 1   
    40    18    37 1   
    41    20    38 1   
    42    21    39 1   
    43    23    40 1   
    44    23    41 1   
    45    23    42 1   
    46    24    43 1   
    47    25    44 1   
    48    26    45 1   
@<TRIPOS>SUBSTRUCTURE
     1 6Q2         1 TEMP              0 ****  ****    0 ROOT
