@<TRIPOS>MOLECULE
6Q2
   45    48     1     0     0
SMALL
bcc


@<TRIPOS>ATOM
      1 C18          0.0000     0.0000     0.0000 ca         1 6Q2       0.040600
      2 C9           1.1690    -2.4710    -3.1840 cp         1 6Q2       0.512800
      3 C11          2.2650    -3.4550    -3.0140 cp         1 6Q2      -0.164500
      4 C16          2.6830    -4.2300    -4.0950 ca         1 6Q2      -0.074500
      5 C12          2.8850    -3.6040    -1.7750 ca         1 6Q2      -0.074500
      6 C6          -0.8500    -0.6740    -3.5390 ca         1 6Q2      -0.373900
      7 C5          -1.9460     0.2740    -3.8000 c          1 6Q2       0.670100
      8 C20          2.0790     0.0000     1.2010 ca         1 6Q2       0.173100
      9 C3          -2.5100    -1.0340    -5.7880 c3         1 6Q2       0.049000
     10 C13          3.9040    -4.5220    -1.6230 ca         1 6Q2      -0.111000
     11 C14          4.3110    -5.2920    -2.6970 ca         1 6Q2      -0.090000
     12 C15          3.7040    -5.1440    -3.9310 ca         1 6Q2      -0.111000
     13 O24         -2.1590     1.1960    -3.0360 o          1 6Q2      -0.716500
     14 C1          -0.3880    -1.4850    -4.5800 ca         1 6Q2       0.454600
     15 C2          -1.0260    -1.3560    -5.9400 c3         1 6Q2      -0.087700
     16 N4          -2.7090     0.1070    -4.8990 ns         1 6Q2      -0.183900
     17 N10          0.5870    -2.3410    -4.3730 nb         1 6Q2      -0.630000
     18 C8           0.7650    -1.7060    -2.0960 ca         1 6Q2      -0.331300
     19 C7          -0.2670    -0.7840    -2.2640 ca         1 6Q2       0.137600
     20 N17         -0.7000     0.0050    -1.2100 nu         1 6Q2      -0.206000
     21 C19          1.3890     0.0000     0.0000 ca         1 6Q2      -0.187000
     22 O25          3.4380     0.0010     1.2050 os         1 6Q2      -0.306900
     23 C26          4.0840     0.0010     2.4790 c3         1 6Q2       0.243700
     24 C21          1.3820     0.0010     2.4020 ca         1 6Q2      -0.232000
     25 C22         -0.0000    -0.0000     2.4000 ca         1 6Q2      -0.030000
     26 C23         -0.6930    -0.0000     1.2050 ca         1 6Q2      -0.176000
     27 H1           2.2080    -4.1160    -5.0610 ha         1 6Q2       0.118500
     28 H2           2.5670    -3.0020    -0.9330 ha         1 6Q2       0.118500
     29 H3          -3.0200    -1.8970    -5.3770 h1         1 6Q2       0.017700
     30 H4          -2.9240    -0.8010    -6.7620 h1         1 6Q2       0.017700
     31 H5           4.3860    -4.6400    -0.6590 ha         1 6Q2       0.103000
     32 H6           5.1120    -6.0110    -2.5730 ha         1 6Q2       0.100000
     33 H7           4.0280    -5.7490    -4.7690 ha         1 6Q2       0.103000
     34 H8          -0.9150    -2.2900    -6.4770 hc         1 6Q2       0.038200
     35 H9          -0.5410    -0.5590    -6.4890 hc         1 6Q2       0.038200
     36 H10         -3.4240     0.7760    -5.1080 hn         1 6Q2       0.183500
     37 H11          1.1130    -1.9540    -1.1010 ha         1 6Q2       0.154000
     38 H12         -1.5320     0.5530    -1.3040 hn         1 6Q2       0.339800
     39 H13          1.9300     0.0890    -0.9340 ha         1 6Q2       0.141000
     40 H14          3.7990     0.8910     3.0280 h1         1 6Q2      -0.001633
     41 H15          5.1580    -0.0090     2.3400 h1         1 6Q2      -0.001633
     42 H16          3.7830    -0.8780     3.0360 h1         1 6Q2      -0.001633
     43 H17          1.9220     0.0010     3.3410 ha         1 6Q2       0.122000
     44 H18         -0.5420     0.0000     3.3380 ha         1 6Q2       0.101000
     45 H19         -1.7760    -0.0010     1.2060 ha         1 6Q2       0.113000
@<TRIPOS>BOND
     1     1    20 1   
     2     1    21 ar  
     3     1    26 ar  
     4     2     3 1   
     5     2    17 ar  
     6     2    18 ar  
     7     3     4 ar  
     8     3     5 ar  
     9     4    12 ar  
    10     4    27 1   
    11     5    10 ar  
    12     5    28 1   
    13     6     7 1   
    14     6    14 ar  
    15     6    19 ar  
    16     7    13 2   
    17     7    16 1   
    18     8    21 ar  
    19     8    22 1   
    20     8    24 ar  
    21     9    15 1   
    22     9    16 1   
    23     9    29 1   
    24     9    30 1   
    25    10    11 ar  
    26    10    31 1   
    27    11    12 ar  
    28    11    32 1   
    29    12    33 1   
    30    14    15 1   
    31    14    17 ar  
    32    15    34 1   
    33    15    35 1   
    34    16    36 1   
    35    18    19 ar  
    36    18    37 1   
    37    19    20 1   
    38    20    38 1   
    39    21    39 1   
    40    22    23 1   
    41    23    40 1   
    42    23    41 1   
    43    23    42 1   
    44    24    25 ar  
    45    24    43 1   
    46    25    26 ar  
    47    25    44 1   
    48    26    45 1   
@<TRIPOS>SUBSTRUCTURE
     1 6Q2         1 TEMP              0 ****  ****    0 ROOT
