@<TRIPOS>MOLECULE
6Q3
   26    26     1     0     0
SMALL
bcc


@<TRIPOS>ATOM
      1 N3           0.0000     0.0000     0.0000 nb         1 6Q3      -0.720000
      2 C2           1.3240     0.0000     0.0000 ca         1 6Q3       0.754900
      3 N2           1.9990    -0.0010    -1.2090 nv         1 6Q3      -0.640500
      4 N1           2.0200     0.0000     1.1280 nb         1 6Q3      -0.664000
      5 C6           1.4090     0.0010     2.3030 ca         1 6Q3       0.449600
      6 C7           2.2110     0.0020     3.5780 c3         1 6Q3      -0.043400
      7 C4          -0.6760     0.0010     1.1420 ca         1 6Q3       0.664600
      8 C5           0.0270     0.0020     2.3460 ca         1 6Q3      -0.383600
      9 O1'         -6.3020     0.0050    -1.1220 oh         1 6Q3      -0.591800
     10 C1'         -4.8850     0.0040    -1.3050 c3         1 6Q3       0.233400
     11 C2'         -4.1940     0.0040     0.0590 c3         1 6Q3      -0.049400
     12 C3'         -2.6770     0.0030    -0.1370 c3         1 6Q3       0.217400
     13 O3'         -2.0310     0.0030     1.1380 os         1 6Q3      -0.422100
     14 H21N         2.2520    -0.8680    -1.6400 hn         1 6Q3       0.280800
     15 H22N         2.2520     0.8650    -1.6410 hn         1 6Q3       0.280800
     16 H71C         3.2680     0.0010     3.3400 hc         1 6Q3       0.018033
     17 H72C         1.9720     0.8880     4.1550 hc         1 6Q3       0.018033
     18 H73C         1.9700    -0.8820     4.1570 hc         1 6Q3       0.018033
     19 H5          -0.4970     0.0030     3.2940 ha         1 6Q3       0.136000
     20 H1'         -6.7280     0.0050    -1.9630 ho         1 6Q3       0.391000
     21 H1'1        -4.5920     0.8880    -1.8590 h1         1 6Q3      -0.015300
     22 H1'2        -4.5930    -0.8810    -1.8580 h1         1 6Q3      -0.015300
     23 H2'1        -4.4870    -0.8800     0.6130 hc         1 6Q3       0.031700
     24 H2'2        -4.4850     0.8890     0.6120 hc         1 6Q3       0.031700
     25 H3'1        -2.3850    -0.8820    -0.6890 h1         1 6Q3       0.010200
     26 H3'2        -2.3830     0.8870    -0.6900 h1         1 6Q3       0.010200
@<TRIPOS>BOND
     1     1     2 ar  
     2     1     7 ar  
     3     2     3 1   
     4     2     4 ar  
     5     3    14 1   
     6     3    15 1   
     7     4     5 ar  
     8     5     6 1   
     9     5     8 ar  
    10     6    16 1   
    11     6    17 1   
    12     6    18 1   
    13     7     8 ar  
    14     7    13 1   
    15     8    19 1   
    16     9    10 1   
    17     9    20 1   
    18    10    11 1   
    19    10    21 1   
    20    10    22 1   
    21    11    12 1   
    22    11    23 1   
    23    11    24 1   
    24    12    13 1   
    25    12    25 1   
    26    12    26 1   
@<TRIPOS>SUBSTRUCTURE
     1 6Q3         1 TEMP              0 ****  ****    0 ROOT
