@<TRIPOS>MOLECULE
molecule
   26    26     1     0     0
SMALL
bcc


@<TRIPOS>ATOM
      1 N3           0.0000     0.0000     0.0000 nb         1 6Q3      -0.835000
      2 C2           1.3240     0.0000     0.0000 ca         1 6Q3       0.968900
      3 N2           1.9990    -0.0010    -1.2090 nv         1 6Q3      -1.061500
      4 N1           2.0200     0.0000     1.1280 nb         1 6Q3      -0.777000
      5 C6           1.4090     0.0010     2.3030 ca         1 6Q3       0.495600
      6 C7           2.2110     0.0020     3.5780 c3         1 6Q3      -0.144400
      7 C4          -0.6760     0.0010     1.1420 ca         1 6Q3       0.700600
      8 C5           0.0270     0.0020     2.3460 ca         1 6Q3      -0.407600
      9 O1'         -6.3020     0.0050    -1.1220 oh         1 6Q3      -0.608800
     10 C1'         -4.8850     0.0040    -1.3050 c3         1 6Q3       0.145400
     11 C2'         -4.1940     0.0040     0.0590 c3         1 6Q3      -0.087400
     12 C3'         -2.6770     0.0030    -0.1370 c3         1 6Q3       0.146400
     13 O3'         -2.0310     0.0030     1.1380 os         1 6Q3      -0.436100
     14 H21N         2.2520    -0.8680    -1.6400 hn         1 6Q3       0.444800
     15 H22N         2.2520     0.8650    -1.6410 hn         1 6Q3       0.444800
     16 H71C         3.2680     0.0010     3.3400 hc         1 6Q3       0.057700
     17 H72C         1.9720     0.8880     4.1550 hc         1 6Q3       0.057700
     18 H73C         1.9700    -0.8820     4.1570 hc         1 6Q3       0.057700
     19 H5          -0.4970     0.0030     3.2940 ha         1 6Q3       0.157000
     20 H1'         -6.7280     0.0050    -1.9630 ho         1 6Q3       0.405000
     21 H1'1        -4.5920     0.8880    -1.8590 h1         1 6Q3       0.021700
     22 H1'2        -4.5930    -0.8810    -1.8580 h1         1 6Q3       0.021700
     23 H2'1        -4.4870    -0.8800     0.6130 hc         1 6Q3       0.065700
     24 H2'2        -4.4850     0.8890     0.6120 hc         1 6Q3       0.065700
     25 H3'1        -2.3850    -0.8820    -0.6890 h1         1 6Q3       0.049700
     26 H3'2        -2.3830     0.8870    -0.6900 h1         1 6Q3       0.049700
@<TRIPOS>BOND
     1     1     2 ar  
     2     1     7 ar  
     3     2     3 1   
     4     2     4 ar  
     5     4     5 ar  
     6     5     6 1   
     7     5     8 ar  
     8     7     8 ar  
     9     7    13 1   
    10     9    10 1   
    11    10    11 1   
    12    11    12 1   
    13    12    13 1   
    14     3    14 1   
    15     3    15 1   
    16     6    16 1   
    17     6    17 1   
    18     6    18 1   
    19     8    19 1   
    20     9    20 1   
    21    10    21 1   
    22    10    22 1   
    23    11    23 1   
    24    11    24 1   
    25    12    25 1   
    26    12    26 1   
@<TRIPOS>SUBSTRUCTURE
     1 6Q3         1 TEMP              0 ****  ****    0 ROOT
