@<TRIPOS>MOLECULE
6Q4
   78    81     1     0     0
SMALL
bcc


@<TRIPOS>ATOM
      1 C5           0.0000     0.0000     0.0000 ca         1 6Q4       0.648200
      2 C6           1.3970     0.0000     0.0000 ca         1 6Q4      -0.602900
      3 C10          1.1570     0.8810     4.7890 ca         1 6Q4      -0.129000
      4 C13          0.2060    -0.4650     7.0280 ca         1 6Q4      -0.054500
      5 C20         -2.6950    -1.4340    -1.0250 c3         1 6Q4      -0.048400
      6 C21         -3.9580    -1.4760    -1.9210 c3         1 6Q4      -0.020400
      7 C22         -3.5410    -0.6160    -3.1390 c3         1 6Q4      -0.032400
      8 C24         -1.5590     0.8750    -3.4420 c          1 6Q4       0.570100
      9 C28         -0.1670     0.7050    -6.3160 c3         1 6Q4      -0.016600
     10 C1           2.0550     0.0000     1.2140 ca         1 6Q4       0.585200
     11 N2           1.3480    -0.0000     2.3350 nb         1 6Q4      -0.743000
     12 C3           0.0230     0.0010     2.3050 ca         1 6Q4       0.763900
     13 N4          -0.6450     0.0020     1.1610 nb         1 6Q4      -0.768000
     14 N7          -0.7030     0.0060    -1.1950 nu         1 6Q4      -0.508900
     15 N8          -0.6800     0.0010     3.4980 nu         1 6Q4      -0.269300
     16 C9           0.0020     0.1080     4.7080 ca         1 6Q4       0.010600
     17 C11          1.8360     0.9830     5.9810 ca         1 6Q4      -0.054500
     18 C12          1.3650     0.3110     7.1120 ca         1 6Q4      -0.168600
     19 C14         -0.4720    -0.5590     5.8330 ca         1 6Q4      -0.129000
     20 O16          1.4810     0.3690     9.4430 o          1 6Q4      -0.653100
     21 N17          3.4290     0.5730     8.3970 n          1 6Q4      -0.143800
     22 C18          4.1770     0.5180     7.1380 c3         1 6Q4       0.048300
     23 C19         -2.1670     0.0070    -1.1830 c3         1 6Q4       0.151500
     24 C23         -2.7040     0.5270    -2.5280 c3         1 6Q4      -0.132700
     25 O26         -1.2150     2.0310    -3.5710 o          1 6Q4      -0.624100
     26 C27          0.2620     0.2270    -4.9270 c3         1 6Q4       0.012700
     27 C29          1.1440    -1.0160    -5.0650 c3         1 6Q4      -0.016600
     28 C30          2.1680    -0.0020    -1.2940 c3         1 6Q4       0.667200
     29 F31          1.8410     1.1400    -2.0330 f          1 6Q4      -0.210967
     30 F32          3.5400    -0.0020    -1.0200 f          1 6Q4      -0.210967
     31 F33          1.8400    -1.1440    -2.0310 f          1 6Q4      -0.210967
     32 C34          4.1370     0.7930     9.6610 c3         1 6Q4       0.016700
     33 C35          4.8720     2.1360     9.6080 c3         1 6Q4      -0.044400
     34 C36          5.6590     2.3320    10.9060 c3         1 6Q4       0.161300
     35 N37          6.6190     1.2340    11.0690 n3         1 6Q4      -0.548600
     36 C38          5.9340    -0.0610    11.1700 c3         1 6Q4       0.161300
     37 C39          5.1540    -0.3300     9.8800 c3         1 6Q4      -0.044400
     38 C40          7.4870     1.4620    12.2320 c3         1 6Q4       0.188100
     39 H1           1.5220     1.4020     3.9120 ha         1 6Q4       0.124000
     40 H2          -0.1640    -0.9850     7.9040 ha         1 6Q4       0.125500
     41 H3          -2.9580    -1.6290     0.0080 hc         1 6Q4       0.027700
     42 H4          -1.9590    -2.1470    -1.3760 hc         1 6Q4       0.027700
     43 H5          -4.8030    -1.0310    -1.4110 hc         1 6Q4       0.021700
     44 H6          -4.1760    -2.4920    -2.2270 hc         1 6Q4       0.021700
     45 H7          -4.4160    -0.2180    -3.6380 hc         1 6Q4       0.022700
     46 H8          -2.9380    -1.2000    -3.8250 hc         1 6Q4       0.022700
     47 H9          -1.0100     0.1160    -6.6570 hc         1 6Q4       0.013533
     48 H10         -0.4520     1.7490    -6.2670 hc         1 6Q4       0.013533
     49 H11          0.6580     0.5880    -7.0090 hc         1 6Q4       0.013533
     50 H12          3.1380    -0.0010     1.2500 h4         1 6Q4      -0.005900
     51 H13         -0.2090    -0.0230    -2.0650 hn         1 6Q4       0.324800
     52 H14         -1.6790    -0.0590     3.4900 hn         1 6Q4       0.294800
     53 H15          2.7350     1.5850     6.0440 ha         1 6Q4       0.125500
     54 H16         -1.3710    -1.1600     5.7670 ha         1 6Q4       0.124000
     55 H17          3.7010    -0.1850     6.4650 h1         1 6Q4       0.021367
     56 H18          5.1930     0.1990     7.3350 h1         1 6Q4       0.021367
     57 H19          4.1900     1.5010     6.6830 h1         1 6Q4       0.021367
     58 H20         -2.5360     0.6260    -0.3740 h1         1 6Q4       0.063700
     59 H21         -3.3310     1.3950    -2.3630 hc         1 6Q4       0.067700
     60 H22         -1.2670    -1.0350    -4.0990 hn         1 6Q4       0.191500
     61 H23          0.8180     1.0120    -4.4300 h1         1 6Q4       0.059700
     62 H24          0.8740    -1.5520    -5.9660 hc         1 6Q4       0.013533
     63 H25          0.9990    -1.6580    -4.2050 hc         1 6Q4       0.013533
     64 H26          2.1830    -0.7160    -5.1210 hc         1 6Q4       0.013533
     65 H27          3.4290     0.8030    10.4810 h1         1 6Q4       0.073700
     66 H28          5.5570     2.1390     8.7680 hc         1 6Q4       0.026200
     67 H29          4.1520     2.9370     9.4980 hc         1 6Q4       0.026200
     68 H30          4.9730     2.3380    11.7450 h1         1 6Q4       0.010450
     69 H31          6.1930     3.2740    10.8640 h1         1 6Q4       0.010450
     70 H33          5.2470    -0.0400    12.0070 h1         1 6Q4       0.010450
     71 H34          6.6670    -0.8450    11.3170 h1         1 6Q4       0.010450
     72 H35          5.8410    -0.3620     9.0440 hc         1 6Q4       0.026200
     73 H36          4.6330    -1.2760     9.9650 hc         1 6Q4       0.026200
     74 H37          7.9390     2.4430    12.1590 h1         1 6Q4       0.000367
     75 H38          6.8980     1.4020    13.1390 h1         1 6Q4       0.000367
     76 H39          8.2640     0.7070    12.2560 h1         1 6Q4       0.000367
     77 N25         -0.9160    -0.0980    -4.1170 ns         1 6Q4      -0.218900
     78 C15          2.0910     0.4180     8.3930 c          1 6Q4       0.614700
@<TRIPOS>BOND
     1     1     2 ar  
     2     1    13 ar  
     3     1    14 1   
     4     2    10 ar  
     5     2    28 1   
     6     3    16 ar  
     7     3    17 ar  
     8     3    39 1   
     9     4    18 ar  
    10     4    19 ar  
    11     4    40 1   
    12     5     6 1   
    13     5    23 1   
    14     5    41 1   
    15     5    42 1   
    16     6     7 1   
    17     6    43 1   
    18     6    44 1   
    19     7    24 1   
    20     7    45 1   
    21     7    46 1   
    22     8    24 1   
    23     8    25 2   
    24     8    77 1   
    25     9    26 1   
    26     9    47 1   
    27     9    48 1   
    28     9    49 1   
    29    10    11 ar  
    30    10    50 1   
    31    11    12 ar  
    32    12    13 ar  
    33    12    15 1   
    34    14    23 1   
    35    14    51 1   
    36    15    16 1   
    37    15    52 1   
    38    16    19 ar  
    39    17    18 ar  
    40    17    53 1   
    41    18    78 1   
    42    19    54 1   
    43    20    78 2   
    44    21    22 1   
    45    21    32 1   
    46    21    78 1   
    47    22    55 1   
    48    22    56 1   
    49    22    57 1   
    50    23    24 1   
    51    23    58 1   
    52    24    59 1   
    53    26    27 1   
    54    26    61 1   
    55    26    77 1   
    56    27    62 1   
    57    27    63 1   
    58    27    64 1   
    59    28    29 1   
    60    28    30 1   
    61    28    31 1   
    62    32    33 1   
    63    32    37 1   
    64    32    65 1   
    65    33    34 1   
    66    33    66 1   
    67    33    67 1   
    68    34    35 1   
    69    34    68 1   
    70    34    69 1   
    71    35    36 1   
    72    35    38 1   
    73    36    37 1   
    74    36    70 1   
    75    36    71 1   
    76    37    72 1   
    77    37    73 1   
    78    38    74 1   
    79    38    75 1   
    80    38    76 1   
    81    60    77 1   
@<TRIPOS>SUBSTRUCTURE
     1 6Q4         1 TEMP              0 ****  ****    0 ROOT
