@<TRIPOS>MOLECULE
molecule
   78    81     1     0     0
SMALL
bcc


@<TRIPOS>ATOM
      1 C5           0.0000     0.0000     0.0000 ca         1 6Q4       0.810200
      2 C6           1.3970     0.0000     0.0000 ca         1 6Q4      -0.555900
      3 C10          1.1570     0.8810     4.7890 ca         1 6Q4      -0.156000
      4 C13          0.2060    -0.4650     7.0280 ca         1 6Q4      -0.077000
      5 C20         -2.6950    -1.4340    -1.0250 c3         1 6Q4      -0.102400
      6 C21         -3.9580    -1.4760    -1.9210 c3         1 6Q4      -0.087400
      7 C22         -3.5410    -0.6160    -3.1390 c3         1 6Q4      -0.086400
      8 C24         -1.5590     0.8750    -3.4420 c          1 6Q4       0.655100
      9 C28         -0.1670     0.7050    -6.3160 c3         1 6Q4      -0.108600
     10 C1           2.0550     0.0000     1.2140 ca         1 6Q4       0.571200
     11 N2           1.3480    -0.0000     2.3350 nb         1 6Q4      -0.828000
     12 C3           0.0230     0.0010     2.3050 ca         1 6Q4       0.991900
     13 N4          -0.6450     0.0020     1.1610 nb         1 6Q4      -0.865000
     14 N7          -0.7030     0.0060    -1.1950 nu         1 6Q4      -0.896900
     15 N8          -0.6800     0.0010     3.4980 nu         1 6Q4      -0.746300
     16 C9           0.0020     0.1080     4.7080 ca         1 6Q4       0.176600
     17 C11          1.8360     0.9830     5.9810 ca         1 6Q4      -0.077000
     18 C12          1.3650     0.3110     7.1120 ca         1 6Q4      -0.165600
     19 C14         -0.4720    -0.5590     5.8330 ca         1 6Q4      -0.156000
     20 O16          1.4810     0.3690     9.4430 o          1 6Q4      -0.613100
     21 N17          3.4290     0.5730     8.3970 n          1 6Q4      -0.485800
     22 C18          4.1770     0.5180     7.1380 c3         1 6Q4       0.085300
     23 C19         -2.1670     0.0070    -1.1830 c3         1 6Q4       0.252500
     24 C23         -2.7040     0.5270    -2.5280 c3         1 6Q4      -0.159700
     25 O26         -1.2150     2.0310    -3.5710 o          1 6Q4      -0.590100
     26 C27          0.2620     0.2270    -4.9270 c3         1 6Q4       0.104700
     27 C29          1.1440    -1.0160    -5.0650 c3         1 6Q4      -0.108600
     28 C30          2.1680    -0.0020    -1.2940 c3         1 6Q4       0.689200
     29 F31          1.8410     1.1400    -2.0330 f          1 6Q4      -0.225967
     30 F32          3.5400    -0.0020    -1.0200 f          1 6Q4      -0.225967
     31 F33          1.8400    -1.1440    -2.0310 f          1 6Q4      -0.225967
     32 C34          4.1370     0.7930     9.6610 c3         1 6Q4       0.111700
     33 C35          4.8720     2.1360     9.6080 c3         1 6Q4      -0.093400
     34 C36          5.6590     2.3320    10.9060 c3         1 6Q4       0.165300
     35 N37          6.6190     1.2340    11.0690 n3         1 6Q4      -0.734600
     36 C38          5.9340    -0.0610    11.1700 c3         1 6Q4       0.165300
     37 C39          5.1540    -0.3300     9.8800 c3         1 6Q4      -0.093400
     38 C40          7.4870     1.4620    12.2320 c3         1 6Q4       0.153100
     39 H1           1.5220     1.4020     3.9120 ha         1 6Q4       0.148500
     40 H2          -0.1640    -0.9850     7.9040 ha         1 6Q4       0.151000
     41 H3          -2.9580    -1.6290     0.0080 hc         1 6Q4       0.058700
     42 H4          -1.9590    -2.1470    -1.3760 hc         1 6Q4       0.058700
     43 H5          -4.8030    -1.0310    -1.4110 hc         1 6Q4       0.052700
     44 H6          -4.1760    -2.4920    -2.2270 hc         1 6Q4       0.052700
     45 H7          -4.4160    -0.2180    -3.6380 hc         1 6Q4       0.051200
     46 H8          -2.9380    -1.2000    -3.8250 hc         1 6Q4       0.051200
     47 H9          -1.0100     0.1160    -6.6570 hc         1 6Q4       0.044367
     48 H10         -0.4520     1.7490    -6.2670 hc         1 6Q4       0.044367
     49 H11          0.6580     0.5880    -7.0090 hc         1 6Q4       0.044367
     50 H12          3.1380    -0.0010     1.2500 h4         1 6Q4       0.045100
     51 H13         -0.2090    -0.0230    -2.0650 hn         1 6Q4       0.470800
     52 H14         -1.6790    -0.0590     3.4900 hn         1 6Q4       0.469800
     53 H15          2.7350     1.5850     6.0440 ha         1 6Q4       0.151000
     54 H16         -1.3710    -1.1600     5.7670 ha         1 6Q4       0.148500
     55 H17          3.7010    -0.1850     6.4650 h1         1 6Q4       0.044367
     56 H18          5.1930     0.1990     7.3350 h1         1 6Q4       0.044367
     57 H19          4.1900     1.5010     6.6830 h1         1 6Q4       0.044367
     58 H20         -2.5360     0.6260    -0.3740 h1         1 6Q4       0.090700
     59 H21         -3.3310     1.3950    -2.3630 hc         1 6Q4       0.097700
     60 H22         -1.2670    -1.0350    -4.0990 hn         1 6Q4       0.318500
     61 H23          0.8180     1.0120    -4.4300 h1         1 6Q4       0.081700
     62 H24          0.8740    -1.5520    -5.9660 hc         1 6Q4       0.044367
     63 H25          0.9990    -1.6580    -4.2050 hc         1 6Q4       0.044367
     64 H26          2.1830    -0.7160    -5.1210 hc         1 6Q4       0.044367
     65 H27          3.4290     0.8030    10.4810 h1         1 6Q4       0.093700
     66 H28          5.5570     2.1390     8.7680 hc         1 6Q4       0.053950
     67 H29          4.1520     2.9370     9.4980 hc         1 6Q4       0.053950
     68 H30          4.9730     2.3380    11.7450 h1         1 6Q4       0.036700
     69 H31          6.1930     3.2740    10.8640 h1         1 6Q4       0.036700
     70 H33          5.2470    -0.0400    12.0070 h1         1 6Q4       0.036700
     71 H34          6.6670    -0.8450    11.3170 h1         1 6Q4       0.036700
     72 H35          5.8410    -0.3620     9.0440 hc         1 6Q4       0.053950
     73 H36          4.6330    -1.2760     9.9650 hc         1 6Q4       0.053950
     74 H37          7.9390     2.4430    12.1590 h1         1 6Q4       0.032033
     75 H38          6.8980     1.4020    13.1390 h1         1 6Q4       0.032033
     76 H39          8.2640     0.7070    12.2560 h1         1 6Q4       0.032033
     77 N25         -0.9160    -0.0980    -4.1170 ns         1 6Q4      -0.595900
     78 C15          2.0910     0.4180     8.3930 c          1 6Q4       0.680700
@<TRIPOS>BOND
     1    38    35 1
     2    35    34 1
     3    35    36 1
     4    34    33 1
     5    36    37 1
     6    33    32 1
     7    20    78 2
     8    37    32 1
     9    32    21 1
    10    78    21 1
    11    78    18 1
    12     6     5 1
    13     6     7 1
    14    21    22 1
    15     5    23 1
    16    18    17 ar
    17    18     4 ar
    18    17     3 ar
    19     7    24 1
    20     4    19 ar
    21     3    16 ar
    22    23    24 1
    23    23    14 1
    24    24     8 1
    25    19    16 ar
    26    16    15 1
    27    14     1 1
    28    13     1 ar
    29    13    12 ar
    30    31    28 1
    31     1     2 ar
    32    15    12 1
    33    12    11 ar
    34     8    25 2
    35     8    77 1
    36     2    28 1
    37     2    10 ar
    38    11    10 ar
    39    28    30 1
    40    28    29 1
    41    77    26 1
    42    27    26 1
    43    26     9 1
    44     3    39 1
    45     4    40 1
    46     5    41 1
    47     5    42 1
    48     6    43 1
    49     6    44 1
    50     7    45 1
    51     7    46 1
    52     9    47 1
    53     9    48 1
    54     9    49 1
    55    10    50 1
    56    14    51 1
    57    15    52 1
    58    17    53 1
    59    19    54 1
    60    22    55 1
    61    22    56 1
    62    22    57 1
    63    23    58 1
    64    24    59 1
    65    77    60 1
    66    26    61 1
    67    27    62 1
    68    27    63 1
    69    27    64 1
    70    32    65 1
    71    33    66 1
    72    33    67 1
    73    34    68 1
    74    34    69 1
    75    36    70 1
    76    36    71 1
    77    37    72 1
    78    37    73 1
    79    38    74 1
    80    38    75 1
    81    38    76 1
@<TRIPOS>SUBSTRUCTURE
     1 6Q4         1 TEMP              0 ****  ****    0 ROOT
