@<TRIPOS>MOLECULE
molecule
   63    66     1     0     0
SMALL
bcc


@<TRIPOS>ATOM
      1 N1           0.0000     0.0000     0.0000 n          1 6Q6      -0.494800
      2 C2           1.9620     0.0000     1.4510 c3         1 6Q6      -0.093200
      3 C4           1.4700     0.0000     0.0000 c3         1 6Q6       0.108500
      4 C5          -0.7060    -1.0340     0.7690 c3         1 6Q6       0.108500
      5 C6           3.4850    -0.1380     1.4740 c3         1 6Q6      -0.088100
      6 C7          -0.8160    -2.1720     2.9930 c3         1 6Q6      -0.088100
      7 C13         -2.0810     2.9460    -3.7900 ca         1 6Q6      -0.089000
      8 C14         -4.9830     1.0170    -1.7050 ca         1 6Q6       0.196100
      9 C15         -4.8400     3.3200    -1.0390 ca         1 6Q6       0.191100
     10 C16         -2.2150     0.5760    -3.4660 ca         1 6Q6      -0.117000
     11 C17         -1.7210     2.7480    -5.1120 ca         1 6Q6       0.046100
     12 C18         -1.8560     0.3700    -4.7860 ca         1 6Q6      -0.117000
     13 C19         -1.6080     1.4520    -5.6130 ca         1 6Q6       0.042100
     14 C20         -6.3640     1.0710    -1.6000 ca         1 6Q6      -0.266000
     15 C24         -5.2230    -1.2580    -2.3560 c3         1 6Q6       0.120700
     16 C8          -0.6860     0.9340    -0.6880 c          1 6Q6       0.662100
     17 C3           1.3340    -1.1680     2.2040 c3         1 6Q6      -0.071400
     18 C1          -0.1890    -1.0150     2.2100 c3         1 6Q6      -0.093200
     19 C9          -2.1930     0.9210    -0.6790 c3         1 6Q6      -0.158400
     20 C10         -2.7190     2.0770    -1.5310 c3         1 6Q6       0.061900
     21 C11         -2.3270     1.8600    -2.9700 ca         1 6Q6      -0.049300
     22 O5          -1.2450     1.5240    -6.9270 os         1 6Q6      -0.333900
     23 C23         -0.7390     2.8590    -7.1150 c3         1 6Q6       0.332200
     24 O3          -1.4280     3.6300    -6.1120 os         1 6Q6      -0.329900
     25 C12         -4.2210     2.1390    -1.4230 ca         1 6Q6      -0.166300
     26 C21         -6.2230     3.3760    -0.9400 ca         1 6Q6      -0.309000
     27 C22         -6.9850     2.2510    -1.2170 ca         1 6Q6       0.198100
     28 O6          -8.3380     2.3050    -1.1140 os         1 6Q6      -0.325900
     29 C25         -8.9090     3.5530    -0.7150 c3         1 6Q6       0.128700
     30 O2          -4.3760    -0.1410    -2.0800 os         1 6Q6      -0.324900
     31 H1           1.6730     0.9290     1.9260 hc         1 6Q6       0.059200
     32 H2           1.8320    -0.8870    -0.5060 h1         1 6Q6       0.055950
     33 H3           1.8320     0.8870    -0.5060 h1         1 6Q6       0.055950
     34 H4          -1.7700    -0.8270     0.7630 h1         1 6Q6       0.055950
     35 H5          -0.5170    -2.0060     0.3290 h1         1 6Q6       0.055950
     36 H6           3.8330    -0.1280     2.5000 hc         1 6Q6       0.036533
     37 H7           3.9310     0.6880     0.9330 hc         1 6Q6       0.036533
     38 H8           3.7700    -1.0730     1.0060 hc         1 6Q6       0.036533
     39 H9          -0.5070    -3.1140     2.5540 hc         1 6Q6       0.036533
     40 H10         -0.4890    -2.1300     4.0240 hc         1 6Q6       0.036533
     41 H11         -1.8950    -2.0920     2.9530 hc         1 6Q6       0.036533
     42 H12         -2.1690     3.9520    -3.3970 ha         1 6Q6       0.150000
     43 H13         -2.4090    -0.2730    -2.8210 ha         1 6Q6       0.145000
     44 H14         -1.7700    -0.6380    -5.1730 ha         1 6Q6       0.135000
     45 H15         -6.9590     0.1930    -1.8190 ha         1 6Q6       0.151000
     46 H16         -4.6160    -2.1080    -2.6440 h1         1 6Q6       0.045367
     47 H17         -5.9000    -1.0070    -3.1640 h1         1 6Q6       0.045367
     48 H18         -5.7940    -1.5060    -1.4700 h1         1 6Q6       0.045367
     49 H19          1.6980    -1.1750     3.2240 hc         1 6Q6       0.044200
     50 H20          1.6000    -2.0970     1.7140 hc         1 6Q6       0.044200
     51 H21         -0.4540    -0.0730     2.6750 hc         1 6Q6       0.059200
     52 H22         -2.5480    -0.0180    -1.0860 hc         1 6Q6       0.071200
     53 H23         -2.5490     1.0310     0.3390 hc         1 6Q6       0.071200
     54 H24         -2.2940     3.0090    -1.1770 hc         1 6Q6       0.091700
     55 H25         -1.0050     3.2180    -8.1020 h2         1 6Q6       0.067200
     56 H26          0.3280     2.8790    -6.9250 h2         1 6Q6       0.067200
     57 H27         -4.2550     4.6960     0.1250 ho         1 6Q6       0.424000
     58 H28         -6.7070     4.2980    -0.6410 ha         1 6Q6       0.143000
     59 H29         -8.6430     4.3180    -1.4350 h1         1 6Q6       0.043700
     60 H30         -8.5300     3.8280     0.2620 h1         1 6Q6       0.043700
     61 H31         -9.9870     3.4590    -0.6700 h1         1 6Q6       0.043700
     62 O4          -4.0930     4.4210    -0.7630 oh         1 6Q6      -0.507100
     63 O1          -0.0920     1.7850    -1.3150 o          1 6Q6      -0.603100
@<TRIPOS>BOND
     1    29    28 1
     2    28    27 1
     3    27    14 ar
     4    27    26 ar
     5    14     8 ar
     6    26     9 ar
     7     8    30 1
     8     8    25 ar
     9    15    30 1
    10     9    25 ar
    11     9    62 1
    12    25    20 1
    13     4    18 1
    14     4     1 1
    15    18    17 1
    16    18     6 1
    17     2    17 1
    18     2     5 1
    19     2     3 1
    20     7    11 ar
    21     7    21 ar
    22     1     3 1
    23     1    16 1
    24    24    11 1
    25    24    23 1
    26    20    21 1
    27    20    19 1
    28    11    13 ar
    29    21    10 ar
    30    23    22 1
    31    13    22 1
    32    13    12 ar
    33    19    16 1
    34    10    12 ar
    35    16    63 2
    36     2    31 1
    37     3    32 1
    38     3    33 1
    39     4    34 1
    40     4    35 1
    41     5    36 1
    42     5    37 1
    43     5    38 1
    44     6    39 1
    45     6    40 1
    46     6    41 1
    47     7    42 1
    48    10    43 1
    49    12    44 1
    50    14    45 1
    51    15    46 1
    52    15    47 1
    53    15    48 1
    54    17    49 1
    55    17    50 1
    56    18    51 1
    57    19    52 1
    58    19    53 1
    59    20    54 1
    60    23    55 1
    61    23    56 1
    62    62    57 1
    63    26    58 1
    64    29    59 1
    65    29    60 1
    66    29    61 1
@<TRIPOS>SUBSTRUCTURE
     1 6Q6         1 TEMP              0 ****  ****    0 ROOT
