@<TRIPOS>MOLECULE
6Q6
   63    66     1     0     0
SMALL
bcc


@<TRIPOS>ATOM
      1 N1           0.0000     0.0000     0.0000 n          1 6Q6      -0.159800
      2 C2           1.9620     0.0000     1.4510 c3         1 6Q6      -0.070200
      3 C4           1.4700     0.0000     0.0000 c3         1 6Q6       0.047500
      4 C5          -0.7060    -1.0340     0.7690 c3         1 6Q6       0.047500
      5 C6           3.4850    -0.1380     1.4740 c3         1 6Q6       0.011400
      6 C7          -0.8160    -2.1720     2.9930 c3         1 6Q6       0.011400
      7 C13         -2.0810     2.9460    -3.7900 ca         1 6Q6      -0.065000
      8 C14         -4.9830     1.0170    -1.7050 ca         1 6Q6       0.215100
      9 C15         -4.8400     3.3200    -1.0390 ca         1 6Q6       0.219100
     10 C16         -2.2150     0.5760    -3.4660 ca         1 6Q6      -0.116000
     11 C17         -1.7210     2.7480    -5.1120 ca         1 6Q6       0.055100
     12 C18         -1.8560     0.3700    -4.7860 ca         1 6Q6      -0.088000
     13 C19         -1.6080     1.4520    -5.6130 ca         1 6Q6       0.046100
     14 C20         -6.3640     1.0710    -1.6000 ca         1 6Q6      -0.274000
     15 C24         -5.2230    -1.2580    -2.3560 c3         1 6Q6       0.233700
     16 C8          -0.6860     0.9340    -0.6880 c          1 6Q6       0.590100
     17 C3           1.3340    -1.1680     2.2040 c3         1 6Q6      -0.024400
     18 C1          -0.1890    -1.0150     2.2100 c3         1 6Q6      -0.070200
     19 C9          -2.1930     0.9210    -0.6790 c3         1 6Q6      -0.128400
     20 C10         -2.7190     2.0770    -1.5310 c3         1 6Q6       0.105900
     21 C11         -2.3270     1.8600    -2.9700 ca         1 6Q6      -0.052300
     22 O5          -1.2450     1.5240    -6.9270 os         1 6Q6      -0.320900
     23 C23         -0.7390     2.8590    -7.1150 c3         1 6Q6       0.431200
     24 O3          -1.4280     3.6300    -6.1120 os         1 6Q6      -0.317900
     25 C12         -4.2210     2.1390    -1.4230 ca         1 6Q6      -0.197300
     26 C21         -6.2230     3.3760    -0.9400 ca         1 6Q6      -0.316000
     27 C22         -6.9850     2.2510    -1.2170 ca         1 6Q6       0.218100
     28 O6          -8.3380     2.3050    -1.1140 os         1 6Q6      -0.307900
     29 C25         -8.9090     3.5530    -0.7150 c3         1 6Q6       0.244700
     30 O2          -4.3760    -0.1410    -2.0800 os         1 6Q6      -0.304900
     31 H1           1.6730     0.9290     1.9260 hc         1 6Q6       0.034200
     32 H2           1.8320    -0.8870    -0.5060 h1         1 6Q6       0.031950
     33 H3           1.8320     0.8870    -0.5060 h1         1 6Q6       0.031950
     34 H4          -1.7700    -0.8270     0.7630 h1         1 6Q6       0.031950
     35 H5          -0.5170    -2.0060     0.3290 h1         1 6Q6       0.031950
     36 H6           3.8330    -0.1280     2.5000 hc         1 6Q6       0.004033
     37 H7           3.9310     0.6880     0.9330 hc         1 6Q6       0.004033
     38 H8           3.7700    -1.0730     1.0060 hc         1 6Q6       0.004033
     39 H9          -0.5070    -3.1140     2.5540 hc         1 6Q6       0.004033
     40 H10         -0.4890    -2.1300     4.0240 hc         1 6Q6       0.004033
     41 H11         -1.8950    -2.0920     2.9530 hc         1 6Q6       0.004033
     42 H12         -2.1690     3.9520    -3.3970 ha         1 6Q6       0.119000
     43 H13         -2.4090    -0.2730    -2.8210 ha         1 6Q6       0.124000
     44 H14         -1.7700    -0.6380    -5.1730 ha         1 6Q6       0.105000
     45 H15         -6.9590     0.1930    -1.8190 ha         1 6Q6       0.136000
     46 H16         -4.6160    -2.1080    -2.6440 h1         1 6Q6       0.001033
     47 H17         -5.9000    -1.0070    -3.1640 h1         1 6Q6       0.001033
     48 H18         -5.7940    -1.5060    -1.4700 h1         1 6Q6       0.001033
     49 H19          1.6980    -1.1750     3.2240 hc         1 6Q6       0.021200
     50 H20          1.6000    -2.0970     1.7140 hc         1 6Q6       0.021200
     51 H21         -0.4540    -0.0730     2.6750 hc         1 6Q6       0.034200
     52 H22         -2.5480    -0.0180    -1.0860 hc         1 6Q6       0.047200
     53 H23         -2.5490     1.0310     0.3390 hc         1 6Q6       0.047200
     54 H24         -2.2940     3.0090    -1.1770 hc         1 6Q6       0.062700
     55 H25         -1.0050     3.2180    -8.1020 h2         1 6Q6       0.011200
     56 H26          0.3280     2.8790    -6.9250 h2         1 6Q6       0.011200
     57 H27         -4.2550     4.6960     0.1250 ho         1 6Q6       0.404000
     58 H28         -6.7070     4.2980    -0.6410 ha         1 6Q6       0.132000
     59 H29         -8.6430     4.3180    -1.4350 h1         1 6Q6      -0.001300
     60 H30         -8.5300     3.8280     0.2620 h1         1 6Q6      -0.001300
     61 H31         -9.9870     3.4590    -0.6700 h1         1 6Q6      -0.001300
     62 O4          -4.0930     4.4210    -0.7630 oh         1 6Q6      -0.487100
     63 O1          -0.0920     1.7850    -1.3150 o          1 6Q6      -0.641100
@<TRIPOS>BOND
     1     1     3 1   
     2     1     4 1   
     3     1    16 1   
     4     2     3 1   
     5     2     5 1   
     6     2    17 1   
     7     2    31 1   
     8     3    32 1   
     9     3    33 1   
    10     4    18 1   
    11     4    34 1   
    12     4    35 1   
    13     5    36 1   
    14     5    37 1   
    15     5    38 1   
    16     6    18 1   
    17     6    39 1   
    18     6    40 1   
    19     6    41 1   
    20     7    11 ar  
    21     7    21 ar  
    22     7    42 1   
    23     8    14 ar  
    24     8    25 ar  
    25     8    30 1   
    26     9    25 ar  
    27     9    26 ar  
    28     9    62 1   
    29    10    12 ar  
    30    10    21 ar  
    31    10    43 1   
    32    11    13 ar  
    33    11    24 1   
    34    12    13 ar  
    35    12    44 1   
    36    13    22 1   
    37    14    27 ar  
    38    14    45 1   
    39    15    30 1   
    40    15    46 1   
    41    15    47 1   
    42    15    48 1   
    43    16    19 1   
    44    16    63 2   
    45    17    18 1   
    46    17    49 1   
    47    17    50 1   
    48    18    51 1   
    49    19    20 1   
    50    19    52 1   
    51    19    53 1   
    52    20    21 1   
    53    20    25 1   
    54    20    54 1   
    55    22    23 1   
    56    23    24 1   
    57    23    55 1   
    58    23    56 1   
    59    26    27 ar  
    60    26    58 1   
    61    27    28 1   
    62    28    29 1   
    63    29    59 1   
    64    29    60 1   
    65    29    61 1   
    66    57    62 1   
@<TRIPOS>SUBSTRUCTURE
     1 6Q6         1 TEMP              0 ****  ****    0 ROOT
