@<TRIPOS>MOLECULE
molecule
   59    62     1     0     0
SMALL
bcc


@<TRIPOS>ATOM
      1 C4           0.0000     0.0000     0.0000 ca         1 6Q7      -0.124000
      2 C5           1.3740    -0.0010     2.4200 ca         1 6Q7      -0.114500
      3 C6           1.3760     0.0000     0.0000 ca         1 6Q7      -0.114500
      4 C7          -7.6560     0.0000     4.7010 ca         1 6Q7      -0.143000
      5 C8          -5.4720    -0.8240    -1.3740 ca         1 6Q7      -0.150500
      6 C10         -6.5820    -0.8140    -2.1960 ca         1 6Q7      -0.027000
      7 C13         -3.0050     0.0040     2.3460 cc         1 6Q7      -0.314300
      8 C15         -5.3770    -0.3400     3.1390 ca         1 6Q7       0.008000
      9 C17         -6.5050     0.7270     4.9830 ca         1 6Q7      -0.078300
     10 C20         -2.1800     0.0040     1.2080 cd         1 6Q7       0.443800
     11 C21         -4.3010     0.0100     1.9230 cd         1 6Q7      -0.050300
     12 C24         -5.8150     0.8610     7.3960 c3         1 6Q7      -0.082433
     13 C26         -9.2250     1.6490    -3.8110 c3         1 6Q7      -0.182300
     14 C1          -7.6690    -0.8970     3.6390 ca         1 6Q7      -0.130000
     15 C2          -6.5290    -1.0670     2.8570 ca         1 6Q7      -0.124000
     16 C3          -0.0020    -0.0070     2.4170 ca         1 6Q7      -0.124000
     17 C9          -6.4710     0.8850    -0.0110 ca         1 6Q7      -0.150500
     18 C11         -7.5740     0.8980    -0.8420 ca         1 6Q7      -0.027000
     19 C12         -5.3640     0.5570     4.2010 ca         1 6Q7      -0.103000
     20 C14         -0.6980    -0.0010     1.2090 ca         1 6Q7      -0.178500
     21 C16          2.0750     0.0000     1.2100 ca         1 6Q7      -0.091600
     22 C18         -5.4120     0.0260    -0.2790 ca         1 6Q7       0.115800
     23 C19         -7.6320     0.0460    -1.9300 ca         1 6Q7      -0.272500
     24 C23         -6.0750     2.9540     6.0680 c3         1 6Q7      -0.082433
     25 C25         -8.0930     1.6320     6.7160 c3         1 6Q7      -0.082433
     26 C27         -6.6210     1.5460     6.2950 c3         1 6Q7      -0.016700
     27 N28         -2.9510     0.0100     0.1380 nc         1 6Q7      -0.509800
     28 N29         -4.2880     0.0180     0.5560 na         1 6Q7       0.125300
     29 O30          4.1820    -0.2930     2.3690 o          1 6Q7      -0.825300
     30 O31        -10.2250    -0.2180    -2.0980 o          1 6Q7      -0.582300
     31 O32         -9.1470    -1.0720    -3.9050 o          1 6Q7      -0.582300
     32 O33          4.2800     0.0070     0.2080 o          1 6Q7      -0.825300
     33 S34         -9.0630     0.0480    -2.9580 sy         1 6Q7       1.002300
     34 H1          -0.5420     0.0000    -0.9380 ha         1 6Q7       0.115500
     35 H2           1.9140     0.0180     3.3590 ha         1 6Q7       0.151500
     36 H3           1.9180     0.0080    -0.9380 ha         1 6Q7       0.151500
     37 H4          -8.5430     0.1330     5.3090 ha         1 6Q7       0.140000
     38 H5          -4.6500    -1.4980    -1.5830 ha         1 6Q7       0.161500
     39 H6          -6.6290    -1.4770    -3.0510 ha         1 6Q7       0.146000
     40 H7          -2.6690    -0.0390     3.3750 ha         1 6Q7       0.164000
     41 H8          -6.1430    -0.1670     7.4980 hc         1 6Q7       0.037367
     42 H9          -4.7630     0.8810     7.1400 hc         1 6Q7       0.037367
     43 H10         -5.9680     1.3830     8.3340 hc         1 6Q7       0.037367
     44 H11        -10.0150     1.5860    -4.5500 h1         1 6Q7       0.096700
     45 H12         -9.4650     2.4200    -3.0900 h1         1 6Q7       0.096700
     46 H13         -8.2910     1.8930    -4.3020 h1         1 6Q7       0.096700
     47 H14         -8.5660    -1.4630     3.4190 ha         1 6Q7       0.133000
     48 H15         -6.5370    -1.7720     2.0350 ha         1 6Q7       0.140000
     49 H16         -0.5460    -0.0080     3.3550 ha         1 6Q7       0.115500
     50 H17         -6.4100     1.5800     0.8180 ha         1 6Q7       0.161500
     51 H18         -8.4000     1.5670    -0.6350 ha         1 6Q7       0.146000
     52 H19         -4.4690     1.1270     4.4180 ha         1 6Q7       0.146000
     53 H20         -6.3310     3.5820     6.9130 hc         1 6Q7       0.037367
     54 H21         -4.9980     2.9110     5.9640 hc         1 6Q7       0.037367
     55 H22         -6.5090     3.3680     5.1660 hc         1 6Q7       0.037367
     56 H23         -8.1950     2.3340     7.5350 hc         1 6Q7       0.037367
     57 H24         -8.6900     1.9680     5.8760 hc         1 6Q7       0.037367
     58 H25         -8.4360     0.6540     7.0340 hc         1 6Q7       0.037367
     59 C22          3.6030    -0.0980     1.2660 c          1 6Q7       0.894200
@<TRIPOS>BOND
     1    32    59 1   
     2    59    29 1   
     3    59    21 1   
     4     3    21 ar  
     5     3     1 ar  
     6    21     2 ar  
     7     1    20 ar  
     8     2    16 ar  
     9    20    16 ar  
    10    20    10 1   
    11    27    10 2   
    12    27    28 1   
    13    10     7 1   
    14    17    18 ar  
    15    17    22 ar  
    16    30    33 2   
    17    18    23 ar  
    18    28    22 1   
    19    28    11 1   
    20    22     5 ar  
    21    31    33 2   
    22    23    33 1   
    23    23     6 ar  
    24    33    13 1   
    25     7    11 2   
    26     5     6 ar  
    27    11     8 1   
    28     8    19 ar  
    29     8    15 ar  
    30    19     9 ar  
    31    15    14 ar  
    32    25    26 1   
    33     9    26 1   
    34     9     4 ar  
    35    14     4 ar  
    36    26    12 1   
    37    26    24 1   
    38     1    34 1   
    39     2    35 1   
    40     3    36 1   
    41     4    37 1   
    42     5    38 1   
    43     6    39 1   
    44     7    40 1   
    45    12    41 1   
    46    12    42 1   
    47    12    43 1   
    48    13    44 1   
    49    13    45 1   
    50    13    46 1   
    51    14    47 1   
    52    15    48 1   
    53    16    49 1   
    54    17    50 1   
    55    18    51 1   
    56    19    52 1   
    57    24    53 1   
    58    24    54 1   
    59    24    55 1   
    60    25    56 1   
    61    25    57 1   
    62    25    58 1   
@<TRIPOS>SUBSTRUCTURE
     1 6Q7         1 TEMP              0 ****  ****    0 ROOT
