@<TRIPOS>MOLECULE
molecule
   48    51     1     0     0
SMALL
bcc


@<TRIPOS>ATOM
      1 C13          0.0000     0.0000     0.0000 ca         1 6Q8      -0.048000
      2 C15         -2.0340     0.0060     1.5850 cc         1 6Q8      -0.108100
      3 C21          4.3400    -5.7310     2.5690 c          1 6Q8       0.709700
      4 C24          4.0820    -7.9730     3.3220 ca         1 6Q8       0.041600
      5 C26          5.0380    -8.8140     5.3540 ca         1 6Q8      -0.149500
      6 C28          4.3680   -10.3350     3.6230 ca         1 6Q8      -0.149500
      7 C01          1.9410    -3.0720    -0.9780 c3         1 6Q8      -0.066800
      8 C02          2.9110    -3.4610     0.1080 cd         1 6Q8       0.045400
      9 N03          2.9430    -4.6570     0.7450 na         1 6Q8      -0.140100
     10 C04          3.9640    -4.6370     1.6680 cd         1 6Q8      -0.224900
     11 C05          4.5680    -3.4000     1.5920 cc         1 6Q8       0.038700
     12 C06          3.8970    -2.6740     0.6020 cc         1 6Q8      -0.399500
     13 S07          4.2660    -1.0290     0.0910 sy         1 6Q8       1.459200
     14 O08          5.6570    -0.8430     0.3120 o          1 6Q8      -0.640800
     15 O09          3.6490    -0.8550    -1.1770 o          1 6Q8      -0.640800
     16 N10          3.4860    -0.0060     1.1340 nu         1 6Q8      -0.770500
     17 C11          2.0910     0.0000     1.1950 ca         1 6Q8       0.172600
     18 C12          1.3550     0.0000     0.0000 ca         1 6Q8      -0.199000
     19 C14         -0.6980     0.0010     1.2270 ca         1 6Q8      -0.207000
     20 N16         -2.1010     0.0040     2.9230 na         1 6Q8       0.022800
     21 N17         -0.8110    -0.0030     3.4660 nc         1 6Q8      -0.273400
     22 C18          0.0690    -0.0050     2.4820 ca         1 6Q8      -0.023000
     23 C19          1.4780    -0.0110     2.4120 ca         1 6Q8      -0.132000
     24 O22          5.2670    -5.5890     3.3440 o          1 6Q8      -0.583100
     25 N23          3.6600    -6.8940     2.5370 ns         1 6Q8      -0.477100
     26 C25          4.6270    -7.7470     4.5790 ca         1 6Q8      -0.122000
     27 C27          4.9060   -10.1080     4.8780 ca         1 6Q8       0.115900
     28 C29          3.9510    -9.2720     2.8470 ca         1 6Q8      -0.122000
     29 F            5.3050   -11.1510     5.6400 f          1 6Q8      -0.141900
     30 H1          -0.5440    -0.0000    -0.9370 ha         1 6Q8       0.132000
     31 H2          -2.8770     0.0110     0.9050 h4         1 6Q8       0.175000
     32 H3           6.6310    -3.4540     2.1190 hc         1 6Q8       0.062367
     33 H4           5.5380    -3.1040     3.4650 hc         1 6Q8       0.062367
     34 H5           5.8790    -1.8580     2.2560 hc         1 6Q8       0.062367
     35 H6           5.4610    -8.6390     6.3360 ha         1 6Q8       0.148500
     36 H7           4.2660   -11.3480     3.2530 ha         1 6Q8       0.148500
     37 H8           1.0980    -2.5520    -0.5400 hc         1 6Q8       0.073033
     38 H9           2.4360    -2.4220    -1.6890 hc         1 6Q8       0.073033
     39 H10          1.5910    -3.9620    -1.4860 hc         1 6Q8       0.073033
     40 H11          2.3270    -5.4270     0.5730 hn         1 6Q8       0.295700
     41 H12          4.0150     0.6100     1.7200 hn         1 6Q8       0.465800
     42 H13          1.8830     0.0070    -0.9460 ha         1 6Q8       0.180000
     43 H14         -2.9480     0.0070     3.4560 hn         1 6Q8       0.331700
     44 H15          2.0650     0.1080     3.3150 ha         1 6Q8       0.146000
     45 H16          2.9230    -7.0210     1.8710 hn         1 6Q8       0.312500
     46 H17          4.7310    -6.7350     4.9510 ha         1 6Q8       0.153000
     47 H18          3.5300    -9.4500     1.8650 ha         1 6Q8       0.153000
     48 C20          5.7360    -2.9200     2.4160 c3         1 6Q8      -0.036800
@<TRIPOS>BOND
     1    15    13 2   
     2    14    13 2   
     3    13    16 1   
     4    13    12 1   
     5    16    17 1   
     6     7     8 1   
     7    12     8 2   
     8    12    11 1   
     9     8     9 1   
    10    17    23 ar  
    11    17    18 ar  
    12    23    22 ar  
    13    11    48 1   
    14    11    10 2   
    15    18     1 ar  
    16     9    10 1   
    17    22    21 2   
    18    22    19 ar  
    19    10     3 1   
    20    21    20 1   
    21     1    19 ar  
    22    19     2 2   
    23     3    24 2   
    24     3    25 1   
    25    20     2 1   
    26    25     4 1   
    27    26     4 ar  
    28    26     5 ar  
    29     4    28 ar  
    30     5    27 ar  
    31    28     6 ar  
    32    27     6 ar  
    33    27    29 1   
    34     1    30 1   
    35     2    31 1   
    36    48    32 1   
    37    48    33 1   
    38    48    34 1   
    39     5    35 1   
    40     6    36 1   
    41     7    37 1   
    42     7    38 1   
    43     7    39 1   
    44     9    40 1   
    45    16    41 1   
    46    18    42 1   
    47    20    43 1   
    48    23    44 1   
    49    25    45 1   
    50    26    46 1   
    51    28    47 1   
@<TRIPOS>SUBSTRUCTURE
     1 6Q8         1 TEMP              0 ****  ****    0 ROOT
