@<TRIPOS>MOLECULE
6Q9
   33    35     1     0     0
SMALL
bcc


@<TRIPOS>ATOM
      1 C13          0.0000     0.0000     0.0000 ca         1 6Q9       0.015000
      2 C15          0.0530     0.0080     2.4820 ca         1 6Q9      -0.010000
      3 C17         -2.0560     0.0110     0.9990 cc         1 6Q9      -0.273100
      4 O01          5.6920     0.8350     1.8800 o          1 6Q9      -0.593300
      5 S02          4.3130     1.0500     2.1480 sy         1 6Q9       1.073200
      6 C03          3.9470     2.6800     1.5880 cc         1 6Q9      -0.380800
      7 C04          3.0280     3.5180     2.1250 cd         1 6Q9      -0.121600
      8 C05          2.1390     3.2240     3.3040 c3         1 6Q9       0.034200
      9 N06          3.0530     4.6650     1.4130 na         1 6Q9       0.463400
     10 N07          4.0180     4.5270     0.4060 nd         1 6Q9      -0.676800
     11 C08          4.5580     3.3400     0.5160 cc         1 6Q9       0.467600
     12 C09          5.6450     2.7790    -0.3620 c3         1 6Q9      -0.022400
     13 C11          2.0830     0.0000     1.1850 ca         1 6Q9       0.091600
     14 C12          1.4110     0.0000     0.0000 ca         1 6Q9      -0.126000
     15 C14         -0.7040     0.0070     1.2910 ca         1 6Q9      -0.211000
     16 C16          1.4070     0.0040     2.4150 ca         1 6Q9      -0.191000
     17 N18         -2.1890     0.0060    -0.3340 na         1 6Q9       0.550800
     18 N19         -0.9270    -0.0000    -0.9410 nc         1 6Q9      -0.448400
     19 O20          3.7470     0.9340     3.4460 o          1 6Q9      -0.593300
     20 H1          -0.4440     0.0110     3.4440 ha         1 6Q9       0.100000
     21 H2          -2.8640     0.0160     1.7200 h4         1 6Q9       0.147000
     22 H3           1.8680     4.1520     3.7930 hc         1 6Q9       0.037367
     23 H4           2.6670     2.5880     4.0050 hc         1 6Q9       0.037367
     24 H5           1.2430     2.7200     2.9640 hc         1 6Q9       0.037367
     25 H6           2.4810     5.4700     1.5740 hn         1 6Q9       0.148700
     26 H7           5.3000     1.8610    -0.8230 hc         1 6Q9       0.022700
     27 H8           6.5240     2.5740     0.2370 hc         1 6Q9       0.022700
     28 H9           5.8940     3.4980    -1.1330 hc         1 6Q9       0.022700
     29 H10          3.9770    -0.6570     0.6090 hn         1 6Q9       0.346800
     30 H11          1.9530    -0.1290    -0.9290 ha         1 6Q9       0.118000
     31 H12          1.9820    -0.0000     3.3330 ha         1 6Q9       0.167000
     32 H13         -3.0620     0.0070    -0.8240 hn         1 6Q9       0.139700
     33 N10          3.4800     0.0000     1.1770 nu         1 6Q9      -0.397500
@<TRIPOS>BOND
     1     1    14 ar  
     2     1    15 ar  
     3     1    18 2   
     4     2    15 ar  
     5     2    16 ar  
     6     2    20 1   
     7     3    15 2   
     8     3    17 1   
     9     3    21 1   
    10     4     5 2   
    11     5     6 1   
    12     5    19 2   
    13     5    33 1   
    14     6     7 2   
    15     6    11 1   
    16     7     8 1   
    17     7     9 1   
    18     8    22 1   
    19     8    23 1   
    20     8    24 1   
    21     9    10 1   
    22     9    25 1   
    23    10    11 2   
    24    11    12 1   
    25    12    26 1   
    26    12    27 1   
    27    12    28 1   
    28    13    14 ar  
    29    13    16 ar  
    30    13    33 1   
    31    14    30 1   
    32    16    31 1   
    33    17    18 1   
    34    17    32 1   
    35    29    33 1   
@<TRIPOS>SUBSTRUCTURE
     1 6Q9         1 TEMP              0 ****  ****    0 ROOT
