@<TRIPOS>MOLECULE
molecule
   33    35     1     0     0
SMALL
bcc


@<TRIPOS>ATOM
      1 C13          0.0000     0.0000     0.0000 ca         1 6Q9      -0.024000
      2 C15          0.0530     0.0080     2.4820 ca         1 6Q9      -0.049000
      3 C17         -2.0560     0.0110     0.9990 cc         1 6Q9      -0.108100
      4 O01          5.6920     0.8350     1.8800 o          1 6Q9      -0.645800
      5 S02          4.3130     1.0500     2.1480 sy         1 6Q9       1.462200
      6 C03          3.9470     2.6800     1.5880 cc         1 6Q9      -0.528800
      7 C04          3.0280     3.5180     2.1250 cd         1 6Q9       0.060400
      8 C05          2.1390     3.2240     3.3040 c3         1 6Q9      -0.068800
      9 N06          3.0530     4.6650     1.4130 na         1 6Q9      -0.027600
     10 N07          4.0180     4.5270     0.4060 nd         1 6Q9      -0.512800
     11 C08          4.5580     3.3400     0.5160 cc         1 6Q9       0.429600
     12 C09          5.6450     2.7790    -0.3620 c3         1 6Q9      -0.124400
     13 C11          2.0830     0.0000     1.1850 ca         1 6Q9       0.170600
     14 C12          1.4110     0.0000     0.0000 ca         1 6Q9      -0.129000
     15 C14         -0.7040     0.0070     1.2910 ca         1 6Q9      -0.205000
     16 C16          1.4070     0.0040     2.4150 ca         1 6Q9      -0.195000
     17 N18         -2.1890     0.0060    -0.3340 na         1 6Q9       0.021800
     18 N19         -0.9270    -0.0000    -0.9410 nc         1 6Q9      -0.273400
     19 O20          3.7470     0.9340     3.4460 o          1 6Q9      -0.645800
     20 H1          -0.4440     0.0110     3.4440 ha         1 6Q9       0.132000
     21 H2          -2.8640     0.0160     1.7200 h4         1 6Q9       0.175000
     22 H3           1.8680     4.1520     3.7930 hc         1 6Q9       0.074367
     23 H4           2.6670     2.5880     4.0050 hc         1 6Q9       0.074367
     24 H5           1.2430     2.7200     2.9640 hc         1 6Q9       0.074367
     25 H6           2.4810     5.4700     1.5740 hn         1 6Q9       0.331700
     26 H7           5.3000     1.8610    -0.8230 hc         1 6Q9       0.062033
     27 H8           6.5240     2.5740     0.2370 hc         1 6Q9       0.062033
     28 H9           5.8940     3.4980    -1.1330 hc         1 6Q9       0.062033
     29 H10          3.9770    -0.6570     0.6090 hn         1 6Q9       0.463800
     30 H11          1.9530    -0.1290    -0.9290 ha         1 6Q9       0.145000
     31 H12          1.9820    -0.0000     3.3330 ha         1 6Q9       0.179000
     32 H13         -3.0620     0.0070    -0.8240 hn         1 6Q9       0.331700
     33 N10          3.4800     0.0000     1.1770 nu         1 6Q9      -0.773500
@<TRIPOS>BOND
     1    19     5 2   
     2     4     5 2   
     3     5    33 1   
     4     5     6 1   
     5    33    13 1   
     6    12    11 1   
     7     6    11 1   
     8     6     7 2   
     9    13    14 ar  
    10    13    16 ar  
    11    11    10 2   
    12    14     1 ar  
    13     8     7 1   
    14     7     9 1   
    15    16     2 ar  
    16    10     9 1   
    17     1    18 2   
    18     1    15 ar  
    19    18    17 1   
    20     2    15 ar  
    21    15     3 2   
    22    17     3 1   
    23     2    20 1   
    24     3    21 1   
    25     8    22 1   
    26     8    23 1   
    27     8    24 1   
    28     9    25 1   
    29    12    26 1   
    30    12    27 1   
    31    12    28 1   
    32    33    29 1   
    33    14    30 1   
    34    16    31 1   
    35    17    32 1   
@<TRIPOS>SUBSTRUCTURE
     1 6Q9         1 TEMP              0 ****  ****    0 ROOT
