@<TRIPOS>MOLECULE
molecule
   49    52     1     0     0
SMALL
bcc


@<TRIPOS>ATOM
      1 C4           0.0000     0.0000     0.0000 cc         1 6QB      -0.365300
      2 C5           1.3980     0.0000     0.0000 cc         1 6QB       0.341200
      3 C8          -2.7750     0.0070     0.8150 ca         1 6QB       0.948900
      4 C10         -3.4500    -0.0030    -1.3880 ca         1 6QB       0.496200
      5 C15         -6.7150     0.0250     2.2720 cc         1 6QB      -0.221000
      6 C20         -7.5010     0.0050    -0.0050 cd         1 6QB      -0.241200
      7 C21        -10.4060     0.0280     2.3290 c3         1 6QB       0.159000
      8 C26        -12.4180    -1.2240     1.5230 ca         1 6QB      -0.114000
      9 C28        -12.3600    -3.5930     1.1720 ca         1 6QB      -0.007600
     10 C1           0.7030     0.0050     3.5440 c3         1 6QB       0.061600
     11 N2           0.6860     0.0020     2.0800 na         1 6QB       0.036400
     12 C3          -0.4170     0.0030     1.2960 cd         1 6QB       0.159300
     13 N6           1.8090     0.0000     1.2420 nd         1 6QB      -0.515800
     14 N7          -1.7390     0.0060     1.7350 nu         1 6QB      -0.733300
     15 N9          -2.4890     0.0020    -0.4780 nb         1 6QB      -0.772000
     16 C11         -4.7720    -0.0000    -0.9760 ca         1 6QB      -0.412600
     17 C12         -5.0420     0.0110     0.3940 ca         1 6QB       0.553100
     18 N13         -4.0250     0.0100     1.2520 nb         1 6QB      -0.786000
     19 C14         -6.4420     0.0140     0.8870 cc         1 6QB      -0.066800
     20 C16         -7.9960     0.0270     2.7040 cd         1 6QB       0.001600
     21 N17         -9.0300     0.0250     1.8240 n          1 6QB      -0.314000
     22 C18         -8.8140     0.0200     0.4960 c          1 6QB       0.682700
     23 O19         -9.7600     0.0130    -0.2760 o          1 6QB      -0.649500
     24 C23        -10.3880     0.1310     3.8550 c3         1 6QB       0.121400
     25 O24         -9.8050    -1.0530     4.4060 oh         1 6QB      -0.608800
     26 C25        -11.0940    -1.2490     1.9190 ca         1 6QB      -0.066300
     27 C27        -13.0510    -2.3950     1.1510 ca         1 6QB      -0.099000
     28 C29        -11.0310    -3.6170     1.5650 ca         1 6QB       0.139900
     29 C30        -10.4000    -2.4450     1.9410 ca         1 6QB      -0.122000
     30 F31        -10.3540    -4.7870     1.5850 f          1 6QB      -0.127900
     31 H1          -0.6380     0.0000    -0.8750 ha         1 6QB       0.201000
     32 H2           2.0320    -0.0020    -0.8780 h4         1 6QB       0.047100
     33 H3          -3.2060    -0.0090    -2.4430 h4         1 6QB       0.035100
     34 H4          -5.9010     0.0290     2.9870 ha         1 6QB       0.168000
     35 H5          -7.3210    -0.0010    -1.0730 ha         1 6QB       0.168000
     36 H6         -10.9400     0.8740     1.9160 h1         1 6QB       0.093700
     37 H7         -12.9600    -0.2870     1.5060 ha         1 6QB       0.139000
     38 H8           0.1950    -0.8770     3.9130 h1         1 6QB       0.051700
     39 H9           1.7280     0.0040     3.8930 h1         1 6QB       0.051700
     40 H10          0.1980     0.8920     3.9090 h1         1 6QB       0.051700
     41 H11         -1.9410     0.0060     2.7160 hn         1 6QB       0.463800
     42 H12         -5.5780    -0.0020    -1.7000 ha         1 6QB       0.155000
     43 H13         -8.2000     0.0360     3.7670 h4         1 6QB       0.176000
     44 H14        -11.4020     0.2380     4.2220 h1         1 6QB       0.041200
     45 H15         -9.8030     0.9930     4.1520 h1         1 6QB       0.041200
     46 H16         -9.9970    -1.0980     5.3280 ho         1 6QB       0.413000
     47 H17        -14.0890    -2.3750     0.8430 ha         1 6QB       0.150000
     48 H18         -9.3610    -2.4630     2.2480 ha         1 6QB       0.162000
     49 Cl1        -13.1570    -5.0630     0.7070 cl         1 6QB      -0.087400
@<TRIPOS>BOND
     1    10    11 1
     2    11    12 1
     3    11    13 1
     4    14    12 1
     5    14     3 1
     6    15     3 ar
     7    15     4 ar
     8    12     1 2
     9    13     2 2
    10     3    18 ar
    11     4    16 ar
    12    18    17 ar
    13    16    17 ar
    14     2     1 1
    15    17    19 1
    16    19     5 1
    17    19     6 2
    18     5    20 2
    19    30    28 1
    20     6    22 1
    21    20    21 1
    22    28    29 ar
    23    28     9 ar
    24    22    21 1
    25    22    23 2
    26    29    26 ar
    27    21     7 1
    28    49     9 1
    29     9    27 ar
    30    26     7 1
    31    26     8 ar
    32     7    24 1
    33    27     8 ar
    34    24    25 1
    35     1    31 1
    36     2    32 1
    37     4    33 1
    38     5    34 1
    39     6    35 1
    40     7    36 1
    41     8    37 1
    42    10    38 1
    43    10    39 1
    44    10    40 1
    45    14    41 1
    46    16    42 1
    47    20    43 1
    48    24    44 1
    49    24    45 1
    50    25    46 1
    51    27    47 1
    52    29    48 1
@<TRIPOS>SUBSTRUCTURE
     1 6QB         1 TEMP              0 ****  ****    0 ROOT
