@<TRIPOS>MOLECULE
molecule
   65    65     1     0     0
SMALL
bcc


@<TRIPOS>ATOM
      1 C1           0.0000     0.0000     0.0000 ca         1 6QC      -0.103500
      2 C2           1.3820     0.0000     0.0000 ca         1 6QC      -0.140000
      3 C3           2.0740     0.0000     1.1970 ca         1 6QC      -0.132000
      4 C9          -4.0240    -1.5190     1.2040 c          1 6QC       0.745100
      5 C12         -5.9990    -2.9460     1.2100 c3         1 6QC      -0.061200
      6 C20        -10.6410    -6.9290    -1.0170 c3         1 6QC      -0.091100
      7 C21         -8.4830    -6.6350    -2.2430 c3         1 6QC      -0.091100
      8 C22         -9.1950    -2.4070    -2.5130 c          1 6QC       0.648100
      9 C27         -9.4860    -2.0170    -6.6790 c3         1 6QC      -0.091100
     10 P13         -6.5840    -3.1780    -0.5010 p5         1 6QC       1.104500
     11 C6          -0.6910     0.0090     1.1970 ca         1 6QC      -0.083300
     12 C4           1.3830     0.0020     2.3940 ca         1 6QC      -0.140000
     13 C5           0.0000     0.0100     2.3950 ca         1 6QC      -0.103500
     14 N16         -8.2530    -3.3900    -0.5000 n7         1 6QC      -0.904300
     15 C17         -8.7470    -3.6840    -1.8520 c3         1 6QC       0.167500
     16 C18         -9.9280    -4.6540    -1.7630 c3         1 6QC      -0.085400
     17 C25        -10.1240    -1.1900    -4.4090 c3         1 6QC       0.119000
     18 C26        -10.6380    -1.4980    -5.8170 c3         1 6QC      -0.087700
     19 C28        -11.2070    -0.2210    -6.4410 c3         1 6QC      -0.069700
     20 C29        -12.3590     0.2980    -5.5790 c3         1 6QC      -0.089100
     21 O14         -5.8780    -4.4780    -1.1380 o          1 6QC      -0.799500
     22 N11         -4.5460    -2.7610     1.2090 ns         1 6QC      -0.520900
     23 O10         -4.7600    -0.5520     1.2000 o          1 6QC      -0.606000
     24 O8          -2.6880    -1.3490     1.2030 os         1 6QC      -0.448900
     25 H1          -0.5420     0.0000    -0.9380 ha         1 6QC       0.138500
     26 H2           1.9240    -0.0040    -0.9380 ha         1 6QC       0.122000
     27 H3           3.1570    -0.0030     1.1970 ha         1 6QC       0.118000
     28 H4          -2.5560     0.5330     2.0800 h1         1 6QC       0.054700
     29 H5          -2.5560     0.5260     0.3110 h1         1 6QC       0.054700
     30 H6          -6.4740    -2.0720     1.6390 h1         1 6QC       0.051700
     31 H7          -6.2520    -3.8200     1.7990 h1         1 6QC       0.051700
     32 H8          -8.9190    -5.8680    -0.2920 hc         1 6QC       0.060700
     33 H9         -11.2210    -6.9850    -1.9300 hc         1 6QC       0.032200
     34 H10        -10.2920    -7.9190    -0.7490 hc         1 6QC       0.032200
     35 H11        -11.2600    -6.5360    -0.2190 hc         1 6QC       0.032200
     36 H12         -7.7310    -5.9100    -2.5290 hc         1 6QC       0.032200
     37 H13         -9.0420    -6.9410    -3.1190 hc         1 6QC       0.032200
     38 H14         -8.0020    -7.5000    -1.8020 hc         1 6QC       0.032200
     39 H16         -8.9120    -2.7440    -6.1160 hc         1 6QC       0.036367
     40 H17         -9.8850    -2.4850    -7.5710 hc         1 6QC       0.036367
     41 H18          1.9250     0.0030     3.3320 ha         1 6QC       0.122000
     42 H19         -0.5410     0.0150     3.3330 ha         1 6QC       0.138500
     43 H20         -8.7060    -3.7910     0.2970 hn         1 6QC       0.382800
     44 H21         -7.9540    -4.1350    -2.4360 h1         1 6QC       0.095700
     45 H22        -10.3600    -4.7880    -2.7480 hc         1 6QC       0.034700
     46 H23        -10.6770    -4.2500    -1.0930 hc         1 6QC       0.034700
     47 H25         -9.2880    -0.5040    -4.4720 h1         1 6QC       0.050700
     48 H26        -10.9170    -0.7400    -3.8250 h1         1 6QC       0.050700
     49 H27        -11.4150    -2.2500    -5.7610 hc         1 6QC       0.045700
     50 H28        -10.4300     0.5310    -6.4970 hc         1 6QC       0.054700
     51 H30        -12.9850     0.9550    -6.1710 hc         1 6QC       0.031700
     52 H31        -11.9590     0.8440    -4.7330 hc         1 6QC       0.031700
     53 H32        -12.9490    -0.5380    -5.2230 hc         1 6QC       0.031700
     54 H34         -3.9400    -3.5580     1.2350 hn         1 6QC       0.320500
     55 C8         -11.7220    -0.5280    -7.8490 c3         1 6QC      -0.089100
     56 H29        -12.2800    -1.4570    -7.8350 hc         1 6QC       0.031700
     57 H35        -12.3680     0.2760    -8.1800 hc         1 6QC       0.031700
     58 H36        -10.8840    -0.6210    -8.5280 hc         1 6QC       0.031700
     59 C7          -2.1980     0.0170     1.1980 c3         1 6QC       0.215700
     60 O23         -9.1110    -1.3530    -1.9170 o          1 6QC      -0.558100
     61 C19         -9.4420    -6.0040    -1.2310 c3         1 6QC      -0.073700
     62 O15         -6.2380    -1.9850    -1.3070 o          1 6QC      -0.799500
     63 N24         -9.6890    -2.4330    -3.7660 ns         1 6QC      -0.608900
     64 H15         -8.8440    -1.1910    -6.9610 hc         1 6QC       0.036367
     65 H24         -9.7600    -3.3020    -4.2580 hn         1 6QC       0.300500
@<TRIPOS>BOND
     1    12    13 ar  
     2    12     3 ar  
     3    13    11 ar  
     4     3     2 ar  
     5    11    59 1   
     6    11     1 ar  
     7     2     1 ar  
     8    59    24 1   
     9    24     4 1   
    10     4    23 2   
    11     4    22 1   
    12    22     5 1   
    13     5    10 1   
    14    62    10 1   
    15    21    10 1   
    16    10    14 1   
    17    17    63 1   
    18    17    18 1   
    19    14    15 1   
    20    63     8 1   
    21     8    60 2   
    22     8    15 1   
    23    19    20 1   
    24    19    18 1   
    25    15    16 1   
    26    18     9 1   
    27    16    61 1   
    28     6    61 1   
    29    61     7 1   
    30     1    25 1   
    31     2    26 1   
    32     3    27 1   
    33    59    28 1   
    34    59    29 1   
    35     5    30 1   
    36     5    31 1   
    37    61    32 1   
    38     6    33 1   
    39     6    34 1   
    40     6    35 1   
    41     7    36 1   
    42     7    37 1   
    43     7    38 1   
    44     9    64 1   
    45     9    39 1   
    46     9    40 1   
    47    12    41 1   
    48    13    42 1   
    49    14    43 1   
    50    15    44 1   
    51    16    45 1   
    52    16    46 1   
    53    63    65 1   
    54    17    47 1   
    55    17    48 1   
    56    18    49 1   
    57    19    50 1   
    58    20    51 1   
    59    20    52 1   
    60    20    53 1   
    61    22    54 1   
    62    19    55 1   
    63    55    56 1   
    64    55    57 1   
    65    55    58 1   
@<TRIPOS>SUBSTRUCTURE
     1 6QC         1 TEMP              0 ****  ****    0 ROOT
