@<TRIPOS>MOLECULE
molecule
   32    33     1     0     0
SMALL
bcc


@<TRIPOS>ATOM
      1 C15          0.0000     0.0000     0.0000 c3         1 6QD      -0.241600
      2 C02          8.7430    -1.6000    -2.7300 c          1 6QD       0.640000
      3 N03          8.4190    -2.9020    -2.5980 nc         1 6QD      -0.732100
      4 C04          7.1750    -3.2910    -2.5570 cd         1 6QD       0.692100
      5 N05          6.1380    -2.4380    -2.6420 na         1 6QD      -0.672600
      6 C06          6.3500    -1.0930    -2.7770 cd         1 6QD       0.000000
      7 C07          7.6590    -0.6210    -2.8210 cc         1 6QD       0.208800
      8 N08          7.5990     0.7240    -2.9500 nc         1 6QD      -0.642000
      9 C09          6.3510     1.0950    -2.9820 cd         1 6QD       0.409400
     10 N10          5.5450    -0.0000    -2.8860 na         1 6QD      -0.179900
     11 C11          4.0800    -0.0010    -2.8860 c3         1 6QD       0.020300
     12 C12          3.5700    -0.0000    -1.4430 c3         1 6QD      -0.105400
     13 C13          2.0400    -0.0000    -1.4430 c3         1 6QD      -0.086400
     14 C14          1.5300     0.0000     0.0000 c3         1 6QD      -0.039400
     15 P16         -0.6070     0.0000     1.7180 p5         1 6QD       1.047700
     16 O17         -0.0170    -1.1420     2.4500 o          1 6QD      -0.915833
     17 O18         -0.1820     1.3760     2.4380 o          1 6QD      -0.915833
     18 O19         -2.2120    -0.1320     1.7200 o          1 6QD      -0.915833
     19 H1          -0.3610     0.8850    -0.5110 hc         1 6QD       0.016200
     20 H2          -0.3610    -0.8850    -0.5110 hc         1 6QD       0.016200
     21 H3           6.9670    -4.3490    -2.4510 h5         1 6QD       0.054800
     22 H4           5.2030    -2.7910    -2.6050 hn         1 6QD       0.451800
     23 H5           6.0060     2.1180    -3.0730 h5         1 6QD       0.074100
     24 H6           3.7190    -0.8850    -3.3960 h1         1 6QD       0.058200
     25 H7           3.7190     0.8840    -3.3960 h1         1 6QD       0.058200
     26 H8           3.9310    -0.8850    -0.9320 hc         1 6QD       0.053200
     27 H9           3.9310     0.8840    -0.9330 hc         1 6QD       0.053200
     28 H10          1.6790    -0.8850    -1.9540 hc         1 6QD       0.023200
     29 H11          1.6790     0.8840    -1.9540 hc         1 6QD       0.023200
     30 H12          1.8910    -0.8840     0.5110 hc         1 6QD       0.050700
     31 H13          1.8910     0.8850     0.5100 hc         1 6QD       0.050700
     32 O01          9.9110    -1.2470    -2.7670 o          1 6QD      -0.554100
@<TRIPOS>BOND
     1    16    15 1   
     2    15    17 1   
     3    15    18 1   
     4    15     1 1   
     5     8     9 2   
     6     8     7 1   
     7     9    10 1   
     8     1    14 1   
     9    32     2 2   
    10     7     2 1   
    11     7     6 2   
    12    10    11 1   
    13    10     6 1   
    14    14    13 1   
    15    11    12 1   
    16    12    13 1   
    17     2     3 1   
    18     6     5 1   
    19     3     4 2   
    20     5     4 1   
    21     1    19 1   
    22     1    20 1   
    23     4    21 1   
    24     5    22 1   
    25     9    23 1   
    26    11    24 1   
    27    11    25 1   
    28    12    26 1   
    29    12    27 1   
    30    13    28 1   
    31    13    29 1   
    32    14    30 1   
    33    14    31 1   
@<TRIPOS>SUBSTRUCTURE
     1 6QD         1 TEMP              0 ****  ****    0 ROOT
