@<TRIPOS>MOLECULE
molecule
   23    25     1     0     0
SMALL
bcc


@<TRIPOS>ATOM
      1 C4           0.0000     0.0000     0.0000 ca         1 6QF       0.287300
      2 C5           1.4170     0.0000     0.0000 ca         1 6QF       0.077800
      3 C6           2.0870     0.0000     1.1870 ca         1 6QF      -0.160000
      4 C10         -2.7180    -0.0010     0.1860 ca         1 6QF       0.316300
      5 C13         -4.8000    -0.0010    -0.9940 ca         1 6QF      -0.114000
      6 C15         -2.7750     0.0170    -2.2910 ca         1 6QF      -0.156300
      7 C1           1.4130    -0.0010     2.4070 ca         1 6QF      -0.104000
      8 C2           0.0570    -0.0020     2.4760 ca         1 6QF      -0.173300
      9 C3          -0.7040    -0.0020     1.2880 ca         1 6QF       0.323300
     10 N7          -2.0330    -0.0020     1.3240 nb         1 6QF      -0.637000
     11 N8          -0.6850     0.0050    -1.1370 nb         1 6QF      -0.613000
     12 C9          -2.0140     0.0110    -1.1010 ca         1 6QF       0.304300
     13 C11         -4.1290    -0.0020     0.1860 ca         1 6QF      -0.165300
     14 C14         -4.1290     0.0220    -2.2180 ca         1 6QF      -0.121000
     15 O19          2.1020     0.0010    -1.1730 oh         1 6QF      -0.500100
     16 H6           3.1700     0.0010     1.1820 ha         1 6QF       0.144000
     17 H13         -5.8830     0.0030    -0.9850 ha         1 6QF       0.136000
     18 H15         -2.2800     0.0350    -3.2550 ha         1 6QF       0.154000
     19 H1           1.9870    -0.0010     3.3260 ha         1 6QF       0.138000
     20 H2          -0.4390    -0.0030     3.4390 ha         1 6QF       0.153000
     21 H11         -4.6740    -0.0200     1.1220 ha         1 6QF       0.152000
     22 H14         -4.7060     0.0220    -3.1350 ha         1 6QF       0.136000
     23 H3           2.4030    -0.8730    -1.3610 ho         1 6QF       0.424000
@<TRIPOS>BOND
     1     6    14 ar
     2     6    12 ar
     3    14     5 ar
     4    15     2 1
     5    11    12 ar
     6    11     1 ar
     7    12     4 ar
     8     2     1 ar
     9     2     3 ar
    10     5    13 ar
    11     1     9 ar
    12     4    13 ar
    13     4    10 ar
    14     3     7 ar
    15     9    10 ar
    16     9     8 ar
    17     7     8 ar
    18     3    16 1
    19     5    17 1
    20     6    18 1
    21     7    19 1
    22     8    20 1
    23    13    21 1
    24    14    22 1
    25    15    23 1
@<TRIPOS>SUBSTRUCTURE
     1 6QF         1 TEMP              0 ****  ****    0 ROOT
