@<TRIPOS>MOLECULE
molecule
   38    40     1     0     0
SMALL
bcc


@<TRIPOS>ATOM
      1 C1           0.0000     0.0000     0.0000 ca         1 6QJ      -0.102300
      2 C2           1.3790     0.0000     0.0000 ca         1 6QJ      -0.079000
      3 C3           2.0740     0.0000     1.2080 cp         1 6QJ      -0.166500
      4 C4           3.5570     0.0010     1.2120 cp         1 6QJ       0.481800
      5 C5           4.2460     0.0010     2.4270 ca         1 6QJ      -0.220300
      6 C6           5.6290     0.0020     2.4210 ca         1 6QJ      -0.097000
      7 C7           6.2880     0.0030     1.2000 ca         1 6QJ      -0.196300
      8 C8           5.5410     0.0020     0.0230 ca         1 6QJ       0.361800
      9 C9           6.2350     0.0020    -1.2850 c          1 6QJ       0.499200
     10 C10          5.4540    -0.0740    -2.5350 ca         1 6QJ      -0.177600
     11 C13          3.9790    -0.2150    -4.8800 ca         1 6QJ       0.147900
     12 C12          3.3460    -0.3500    -3.6560 ca         1 6QJ      -0.186000
     13 C11          4.0710    -0.2810    -2.4860 ca         1 6QJ      -0.076000
     14 C14          5.3530    -0.0030    -4.9370 ca         1 6QJ       0.045100
     15 C15          6.0920     0.0670    -3.7700 ca         1 6QJ      -0.081000
     16 O            7.4480     0.0660    -1.3290 o          1 6QJ      -0.521100
     17 N            4.2150    -0.0030     0.0630 nb         1 6QJ      -0.680000
     18 C16          1.3730    -0.0000     2.4130 ca         1 6QJ      -0.097000
     19 C17         -0.0060    -0.0000     2.4060 ca         1 6QJ      -0.178000
     20 C18         -0.6960     0.0050     1.2020 ca         1 6QJ       0.126100
     21 C           -0.7530    -0.0000    -1.3060 c3         1 6QJ      -0.046800
     22 H1           1.9210    -0.0040    -0.9380 ha         1 6QJ       0.153000
     23 H2           3.7020     0.0010     3.3650 ha         1 6QJ       0.146000
     24 H3           6.1860     0.0020     3.3500 ha         1 6QJ       0.146000
     25 H4           7.3710     0.0030     1.1620 ha         1 6QJ       0.164000
     26 H5           6.1610     1.0370    -6.3010 ho         1 6QJ       0.421000
     27 H6          -2.3700     0.7740     1.6420 ho         1 6QJ       0.423000
     28 H7           2.2750    -0.5110    -3.6170 ha         1 6QJ       0.148000
     29 H8           3.5720    -0.3870    -1.5310 ha         1 6QJ       0.203000
     30 H9           7.1710     0.1530    -3.8160 ha         1 6QJ       0.164000
     31 H10          1.9100    -0.0020     3.3530 ha         1 6QJ       0.134000
     32 H11         -0.5520     0.0010     3.3420 ha         1 6QJ       0.140000
     33 H12         -1.7830    -0.2840    -1.1280 hc         1 6QJ       0.050033
     34 H13         -0.2950    -0.7080    -1.9860 hc         1 6QJ       0.050033
     35 H14         -0.7210     0.9910    -1.7410 hc         1 6QJ       0.050033
     36 O1           5.9720     0.1270    -6.1410 oh         1 6QJ      -0.505100
     37 O2          -2.0540     0.0040     1.1980 oh         1 6QJ      -0.513100
     38 F            3.2620    -0.2900    -6.0230 f          1 6QJ      -0.128900
@<TRIPOS>BOND
     1    16     9 2   
     2    18    19 ar  
     3    18     3 ar  
     4    19    20 ar  
     5     7     6 ar  
     6     7     8 ar  
     7     6     5 ar  
     8     9     8 1   
     9     9    10 1   
    10     8    17 ar  
    11     5     4 ar  
    12    17     4 ar  
    13     4     3 1   
    14     3     2 ar  
    15    20    37 1   
    16    20     1 ar  
    17     2     1 ar  
    18    15    10 ar  
    19    15    14 ar  
    20     1    21 1   
    21    10    13 ar  
    22    36    14 1   
    23    14    11 ar  
    24    13    12 ar  
    25    11    12 ar  
    26    11    38 1   
    27     2    22 1   
    28     5    23 1   
    29     6    24 1   
    30     7    25 1   
    31    36    26 1   
    32    37    27 1   
    33    12    28 1   
    34    13    29 1   
    35    15    30 1   
    36    18    31 1   
    37    19    32 1   
    38    21    33 1   
    39    21    34 1   
    40    21    35 1   
@<TRIPOS>SUBSTRUCTURE
     1 6QJ         1 TEMP              0 ****  ****    0 ROOT
