@<TRIPOS>MOLECULE
molecule
   31    32     1     0     0
SMALL
bcc


@<TRIPOS>ATOM
      1 C11          0.0000     0.0000     0.0000 ca         1 6QK       0.720600
      2 C02          4.2720    -1.5150     4.8100 ca         1 6QK       0.025400
      3 C03          3.9880    -1.4030     3.4440 ca         1 6QK       0.002400
      4 C04          3.5490    -2.5840     2.6790 c          1 6QK       0.877200
      5 O05          4.4610    -3.3730     2.0780 o          1 6QK      -0.810800
      6 O06          2.3660    -2.8450     2.5920 o          1 6QK      -0.810800
      7 C07          4.1220    -0.1590     2.8070 ca         1 6QK      -0.006100
      8 S08          3.7680     0.0000     1.0880 ss         1 6QK      -0.177200
      9 C09          2.0060     0.0000     1.1390 ca         1 6QK       0.871300
     10 N10          1.3280     0.0000     0.0000 nb         1 6QK      -0.823000
     11 O12         -0.6870    -0.0000    -1.1690 os         1 6QK      -0.446100
     12 C13          0.0830     0.0010    -2.3730 c3         1 6QK       0.135700
     13 C14         -0.6780    -0.0060     1.2140 ca         1 6QK      -0.442600
     14 C15          0.0670    -0.0060     2.3880 ca         1 6QK       0.720600
     15 O16         -0.5520    -0.0120     3.5940 os         1 6QK      -0.446100
     16 C17          0.2830    -0.0120     4.7530 c3         1 6QK       0.135700
     17 N18          1.3930     0.0000     2.3130 nb         1 6QK      -0.823000
     18 C19          4.5360     0.9470     3.5410 ca         1 6QK      -0.085000
     19 C20          4.8130     0.8210     4.8860 ca         1 6QK      -0.176000
     20 C21          4.6760    -0.4040     5.5200 ca         1 6QK      -0.114000
     21 H2           0.7070     0.8860    -2.4020 h1         1 6QK       0.046200
     22 H3           0.7080    -0.8830    -2.4030 h1         1 6QK       0.046200
     23 H4          -0.5830     0.0010    -3.2280 h1         1 6QK       0.046200
     24 H5          -1.7610    -0.0060     1.2440 ha         1 6QK       0.149000
     25 H6          -0.3250     0.1390     5.6370 h1         1 6QK       0.046200
     26 H7           0.7990    -0.9620     4.8270 h1         1 6QK       0.046200
     27 H8           1.0100     0.7880     4.6740 h1         1 6QK       0.046200
     28 H9           4.6430     1.9090     3.0540 ha         1 6QK       0.121000
     29 H10          5.1340     1.6870     5.4530 ha         1 6QK       0.113000
     30 H11          4.8960    -0.4920     6.5770 ha         1 6QK       0.120000
     31 Cl01         4.1100    -3.0470     5.6090 cl         1 6QK      -0.109400
@<TRIPOS>BOND
     1    19    18 ar
     2    19    20 ar
     3    18     7 ar
     4    16    15 1
     5    20     2 ar
     6     7     8 1
     7     7     3 ar
     8     8     9 1
     9    17     9 ar
    10    17    14 ar
    11     2     3 ar
    12     2    31 1
    13     3     4 1
    14    15    14 1
    15     9    10 ar
    16     6     4 1
    17    14    13 ar
    18     4     5 1
    19    10     1 ar
    20    13     1 ar
    21     1    11 1
    22    11    12 1
    23    12    21 1
    24    12    22 1
    25    12    23 1
    26    13    24 1
    27    16    25 1
    28    16    26 1
    29    16    27 1
    30    18    28 1
    31    19    29 1
    32    20    30 1
@<TRIPOS>SUBSTRUCTURE
     1 6QK         1 TEMP              0 ****  ****    0 ROOT
