@<TRIPOS>MOLECULE
molecule
   48    50     1     0     0
SMALL
bcc


@<TRIPOS>ATOM
      1 O01          0.0000     0.0000     0.0000 o          1 6QL      -0.811300
      2 C02          1.3470     0.0000     0.0000 c          1 6QL       0.877200
      3 C03          2.0840     0.0000     1.2730 ca         1 6QL      -0.049600
      4 C04          2.4420    -1.2120     1.8830 ca         1 6QL       0.113600
      5 O05          2.1100    -2.3920     1.2990 os         1 6QL      -0.315400
      6 C06          2.8960    -2.8460     0.2930 ca         1 6QL       0.998300
      7 N07          2.5370    -3.9370    -0.3610 nb         1 6QL      -0.857500
      8 C08          3.2810    -4.4120    -1.3540 ca         1 6QL       0.742350
      9 O09          2.9060    -5.5310    -2.0200 os         1 6QL      -0.443850
     10 C10          1.6900    -6.1570    -1.6050 c3         1 6QL       0.134700
     11 C11          4.4520    -3.7460    -1.7010 ca         1 6QL      -0.464600
     12 C12          4.7970    -2.6030    -0.9890 ca         1 6QL       0.742350
     13 O13          5.9260    -1.9180    -1.2950 os         1 6QL      -0.443850
     14 C14          6.2030    -0.7460    -0.5260 c3         1 6QL       0.134700
     15 N15          4.0000    -2.1830    -0.0110 nb         1 6QL      -0.857500
     16 C16          3.1350    -1.2000     3.0820 ca         1 6QL      -0.130500
     17 C17          3.4740     0.0010     3.6790 ca         1 6QL      -0.158000
     18 C18          3.1260     1.2010     3.0870 ca         1 6QL      -0.130500
     19 C19          2.4370     1.2120     1.8840 ca         1 6QL       0.113600
     20 O20          2.1010     2.3910     1.3040 os         1 6QL      -0.315400
     21 C21          0.8730     2.9010     1.5620 ca         1 6QL       0.998300
     22 N22          0.0210     2.1920     2.2840 nb         1 6QL      -0.857500
     23 C23         -1.1920     2.6620     2.5610 ca         1 6QL       0.742350
     24 O24         -2.0580     1.9300     3.3030 os         1 6QL      -0.443850
     25 C25         -1.6050     0.6530     3.7580 c3         1 6QL       0.134700
     26 C26         -1.5580     3.9130     2.0810 ca         1 6QL      -0.464600
     27 C27         -0.6360     4.6280     1.3260 ca         1 6QL       0.742350
     28 O28         -0.9500     5.8530     0.8370 os         1 6QL      -0.443850
     29 C29          0.0520     6.5230     0.0700 c3         1 6QL       0.134700
     30 N30          0.5580     4.0950     1.0880 nb         1 6QL      -0.857500
     31 O31          1.9540    -0.0010    -1.0530 o          1 6QL      -0.811300
     32 H2           1.5160    -7.0420    -2.2050 h1         1 6QL       0.048283
     33 H3           1.7660    -6.4380    -0.5610 h1         1 6QL       0.048283
     34 H4           0.8660    -5.4660    -1.7330 h1         1 6QL       0.048283
     35 H5           5.0800    -4.1090    -2.5050 ha         1 6QL       0.152500
     36 H6           6.2360    -1.0040     0.5260 h1         1 6QL       0.048283
     37 H7           7.1580    -0.3340    -0.8270 h1         1 6QL       0.048283
     38 H8           5.4240    -0.0120    -0.6930 h1         1 6QL       0.048283
     39 H9           3.4130    -2.1350     3.5540 ha         1 6QL       0.123000
     40 H10          4.0140     0.0010     4.6180 ha         1 6QL       0.116000
     41 H11          3.3980     2.1360     3.5620 ha         1 6QL       0.123000
     42 H12         -1.4400     0.0030     2.9070 h1         1 6QL       0.048283
     43 H13         -0.6770     0.7730     4.3050 h1         1 6QL       0.048283
     44 H14         -2.3530     0.2150     4.4080 h1         1 6QL       0.048283
     45 H15         -2.5390     4.3220     2.2910 ha         1 6QL       0.152500
     46 H16          0.3020     5.9250    -0.7990 h1         1 6QL       0.048283
     47 H17          0.9380     6.6630     0.6780 h1         1 6QL       0.048283
     48 H18         -0.3230     7.4870    -0.2510 h1         1 6QL       0.048283
@<TRIPOS>BOND
     1    14    13 1
     2    13    12 1
     3    25    24 1
     4    24    23 1
     5    12    15 ar
     6    12    11 ar
     7    15     6 ar
     8    31     2 1
     9    11     8 ar
    10    23    26 ar
    11    23    22 ar
    12    26    27 ar
    13     6     5 1
    14     6     7 ar
    15     2     1 1
    16     2     3 1
    17     5     4 1
    18    22    21 ar
    19     8     7 ar
    20     8     9 1
    21    27    28 1
    22    27    30 ar
    23    28    29 1
    24     4     3 ar
    25     4    16 ar
    26     3    19 ar
    27    10     9 1
    28    21    30 ar
    29    21    20 1
    30    16    17 ar
    31    19    20 1
    32    19    18 ar
    33    17    18 ar
    34    10    32 1
    35    10    33 1
    36    10    34 1
    37    11    35 1
    38    14    36 1
    39    14    37 1
    40    14    38 1
    41    16    39 1
    42    17    40 1
    43    18    41 1
    44    25    42 1
    45    25    43 1
    46    25    44 1
    47    26    45 1
    48    29    46 1
    49    29    47 1
    50    29    48 1
@<TRIPOS>SUBSTRUCTURE
     1 6QL         1 TEMP              0 ****  ****    0 ROOT
