@<TRIPOS>MOLECULE
molecule
   42    44     1     0     0
SMALL
bcc


@<TRIPOS>ATOM
      1 N1           0.0000     0.0000     0.0000 nc         1 6QM      -0.181100
      2 N2           1.2730     0.0000     0.0000 nd         1 6QM      -0.326000
      3 C3           1.9310     0.0000     1.1480 cd         1 6QM       0.375800
      4 C4           1.0630     0.0020     2.2340 cc         1 6QM      -0.085400
      5 C6           3.4090    -0.0010     1.2610 ca         1 6QM      -0.154500
      6 C7           1.3930     0.0040     3.6740 ca         1 6QM      -0.054000
      7 C16          0.3800     0.1430     4.6250 ca         1 6QM      -0.075000
      8 C15          0.6930     0.1440     5.9670 ca         1 6QM      -0.191000
      9 C14          2.0140     0.0080     6.3740 ca         1 6QM       0.156100
     10 C13          3.0240    -0.1310     5.4330 ca         1 6QM      -0.191000
     11 C12          2.7190    -0.1390     4.0880 ca         1 6QM      -0.075000
     12 C21          4.1440    -1.1120     0.8360 ca         1 6QM       0.168100
     13 C22          5.5240    -1.1080     0.9440 ca         1 6QM      -0.260000
     14 C23          6.1740    -0.0020     1.4740 ca         1 6QM       0.152100
     15 C24          5.4450     1.1010     1.8970 ca         1 6QM      -0.126300
     16 C25          4.0690     1.1080     1.7860 ca         1 6QM      -0.064000
     17 O29          7.5290     0.0000     1.5790 oh         1 6QM      -0.506100
     18 O30          3.5050    -2.1940     0.3180 oh         1 6QM      -0.497100
     19 O33          2.3180     0.0100     7.6990 os         1 6QM      -0.328900
     20 S1          -0.5370     0.0020     1.4710 ss         1 6QM       0.170200
     21 C34          3.6950    -0.1360     8.0490 c3         1 6QM       0.134400
     22 CAA          3.8410    -0.1100     9.5720 c3         1 6QM      -0.093100
     23 CAL          6.1590     2.2970     2.4710 c3         1 6QM      -0.026100
     24 CAB          6.5200     2.0230     3.9320 c3         1 6QM      -0.086100
     25 H25          3.5030     1.9700     2.1170 ha         1 6QM       0.152000
     26 H16         -0.6500     0.2490     4.3080 ha         1 6QM       0.147000
     27 H12          3.5080    -0.2480     3.3540 ha         1 6QM       0.147000
     28 H15         -0.0930     0.2520     6.7050 ha         1 6QM       0.144500
     29 H13          4.0520    -0.2400     5.7550 ha         1 6QM       0.144500
     30 H22          6.0960    -1.9670     0.6160 ha         1 6QM       0.144000
     31 H30          3.9130    -2.4390    -0.4960 ho         1 6QM       0.427000
     32 H29          7.9090    -0.2550     0.7550 ho         1 6QM       0.423000
     33 HAL1         7.0630     2.4850     1.9040 hc         1 6QM       0.051200
     34 HAL2         5.5120     3.1650     2.4150 hc         1 6QM       0.051200
     35 H341         4.2650     0.6780     7.6180 h1         1 6QM       0.036200
     36 H342         4.0670    -1.0790     7.6670 h1         1 6QM       0.036200
     37 HAA1         4.8830    -0.2360     9.8370 hc         1 6QM       0.048700
     38 HAA2         3.2580    -0.9140    10.0040 hc         1 6QM       0.048700
     39 HAA3         3.4830     0.8400     9.9520 hc         1 6QM       0.048700
     40 HAB1         7.5080     2.4160     4.1390 hc         1 6QM       0.036700
     41 HAB2         6.5100     0.9550     4.1120 hc         1 6QM       0.036700
     42 HAB3         5.7970     2.5050     4.5790 hc         1 6QM       0.036700
@<TRIPOS>BOND
     1     1     2 2   
     2     1    20 1   
     3     2     3 1   
     4     3     4 2   
     5     3     5 1   
     6     4     6 1   
     7     4    20 1   
     8     5    12 ar  
     9     5    16 ar  
    10     6     7 ar  
    11     6    11 ar  
    12     7     8 ar  
    13     8     9 ar  
    14     9    10 ar  
    15     9    19 1   
    16    10    11 ar  
    17    12    13 ar  
    18    12    18 1   
    19    13    14 ar  
    20    14    15 ar  
    21    14    17 1   
    22    15    16 ar  
    23    15    23 1   
    24    19    21 1   
    25    21    22 1   
    26    23    24 1   
    27    16    25 1   
    28     7    26 1   
    29    11    27 1   
    30     8    28 1   
    31    10    29 1   
    32    13    30 1   
    33    18    31 1   
    34    17    32 1   
    35    23    33 1   
    36    23    34 1   
    37    21    35 1   
    38    21    36 1   
    39    22    37 1   
    40    22    38 1   
    41    22    39 1   
    42    24    40 1   
    43    24    41 1   
    44    24    42 1   
@<TRIPOS>SUBSTRUCTURE
     1 6QM         1 TEMP              0 ****  ****    0 ROOT
