@<TRIPOS>MOLECULE
6QM
   42    44     1     0     0
SMALL
bcc


@<TRIPOS>ATOM
      1 N1          0.0670   -0.1500    0.1740 nc        1 6QM     -0.135100
      2 N2          1.2970   -0.1230    0.0260 nd        1 6QM     -0.260000
      3 C3          2.0150   -0.0570    1.2520 cd        1 6QM      0.339800
      4 C4          1.1660   -0.0450    2.3660 cc        1 6QM     -0.067400
      5 C6          3.4690   -0.0020    1.2430 ca        1 6QM     -0.182500
      6 C7          1.5240   -0.0170    3.7610 ca        1 6QM     -0.067000
      7 C16         0.7690    0.7490    4.6700 ca        1 6QM     -0.069000
      8 C15         1.0930    0.7720    6.0170 ca        1 6QM     -0.186500
      9 C14         2.1880    0.0140    6.4790 ca        1 6QM      0.145100
     10 C13         2.9460   -0.7540    5.5880 ca        1 6QM     -0.186500
     11 C12         2.6110   -0.7630    4.2360 ca        1 6QM     -0.069000
     12 C21         4.2320   -1.0870    0.7640 ca        1 6QM      0.186100
     13 C22         5.6300   -1.0130    0.7150 ca        1 6QM     -0.308000
     14 C23         6.2670    0.1560    1.1500 ca        1 6QM      0.174100
     15 C24         5.5290    1.2540    1.6380 ca        1 6QM     -0.136300
     16 C25         4.1370    1.1510    1.6690 ca        1 6QM     -0.040000
     17 O29         7.6360    0.2800    1.1210 oh        1 6QM     -0.492100
     18 O30         3.5540   -2.2170    0.3790 oh        1 6QM     -0.481100
     19 O33         2.4210    0.1070    7.8340 os        1 6QM     -0.327900
     20 S1         -0.4300   -0.1100    1.7860 ss        1 6QM      0.093200
     21 C34         3.5300   -0.6530    8.3370 c3        1 6QM      0.127400
     22 CAA         3.5740   -0.3870    9.8240 c3        1 6QM     -0.100100
     23 CAL         6.2000    2.5020    2.0910 c3        1 6QM     -0.027100
     24 CAB         6.1160    2.6830    3.5880 c3        1 6QM     -0.089100
     25 H25         3.5470    2.0070    2.0390 ha        1 6QM      0.148000
     26 H16        -0.0870    1.3380    4.3060 ha        1 6QM      0.144000
     27 H12         3.2060   -1.3610    3.5280 ha        1 6QM      0.144000
     28 H15         0.5100    1.3690    6.7330 ha        1 6QM      0.147500
     29 H13         3.8020   -1.3500    5.9350 ha        1 6QM      0.147500
     30 H22         6.2180   -1.8590    0.3340 ha        1 6QM      0.137000
     31 H30         4.1890   -2.8230   -0.0320 ho        1 6QM      0.421000
     32 H29         8.0030   -0.5260    0.7300 ho        1 6QM      0.421000
     33 HAL1        7.2790    2.4880    1.7770 hc        1 6QM      0.055200
     34 HAL2        5.7160    3.3800    1.5820 hc        1 6QM      0.055200
     35 H341        4.4720   -0.3110    7.8340 h1        1 6QM      0.040200
     36 H342        3.3610   -1.7410    8.1230 h1        1 6QM      0.040200
     37 HAA1        2.6200   -0.7080   10.3070 hc        1 6QM      0.050700
     38 HAA2        3.7170    0.7030   10.0220 hc        1 6QM      0.050700
     39 HAA3        4.4230   -0.9560   10.2710 hc        1 6QM      0.050700
     40 HAB1        6.6010    3.6450    3.8830 hc        1 6QM      0.035033
     41 HAB2        5.0510    2.7030    3.9240 hc        1 6QM      0.035033
     42 HAB3        6.6360    1.8480    4.1160 hc        1 6QM      0.035033
@<TRIPOS>BOND
     1    1    2 2   
     2    1   20 1   
     3    2    3 1   
     4    3    4 2   
     5    3    5 1   
     6    4    6 1   
     7    4   20 1   
     8    5   12 ar  
     9    5   16 ar  
    10    6    7 ar  
    11    6   11 ar  
    12    7    8 ar  
    13    7   26 1   
    14    8    9 ar  
    15    8   28 1   
    16    9   10 ar  
    17    9   19 1   
    18   10   11 ar  
    19   10   29 1   
    20   11   27 1   
    21   12   13 ar  
    22   12   18 1   
    23   13   14 ar  
    24   13   30 1   
    25   14   15 ar  
    26   14   17 1   
    27   15   16 ar  
    28   15   23 1   
    29   16   25 1   
    30   17   32 1   
    31   18   31 1   
    32   19   21 1   
    33   21   22 1   
    34   21   35 1   
    35   21   36 1   
    36   22   37 1   
    37   22   38 1   
    38   22   39 1   
    39   23   24 1   
    40   23   33 1   
    41   23   34 1   
    42   24   40 1   
    43   24   41 1   
    44   24   42 1   
@<TRIPOS>SUBSTRUCTURE
     1 6QM         1 TEMP              0 ****  ****    0 ROOT
