@<TRIPOS>MOLECULE
6QN
   28    29     1     0     0
SMALL
bcc


@<TRIPOS>ATOM
      1 C4           0.0000     0.0000     0.0000 c          1 6QN       0.613300
      2 C6           1.4680     0.0000     0.0000 cc         1 6QN      -0.312400
      3 C7           2.1760     0.0000     1.2030 cd         1 6QN       0.282900
      4 C8           3.6420    -0.0000     1.1430 ca         1 6QN      -0.142800
      5 C9           4.4220    -0.0020     2.3040 ca         1 6QN      -0.145300
      6 C10          5.7950    -0.0030     2.1760 ca         1 6QN       0.366200
      7 C12          5.6820    -0.0030    -0.1330 ca         1 6QN       0.359200
      8 C13          4.2880    -0.0020    -0.1060 ca         1 6QN      -0.181700
      9 N3          -0.6740     0.1210    -1.1610 ns         1 6QN      -0.225900
     10 C1          -2.6450     0.3530    -2.5890 c3         1 6QN      -0.007100
     11 C2          -2.1350     0.2260    -1.1530 c3         1 6QN       0.054000
     12 O5          -0.6090    -0.1140     1.0470 o          1 6QN      -0.659100
     13 N11          6.3700    -0.0030     0.9880 nb         1 6QN      -0.527000
     14 N14          3.5560    -0.0020    -1.2730 ns         1 6QN       0.058900
     15 C16          2.2120    -0.0060    -1.2610 c          1 6QN       0.622700
     16 O17          1.6020    -0.0120    -2.3150 o          1 6QN      -0.699500
     17 O18          1.5310     0.0020     2.3880 oh         1 6QN      -0.453100
     18 H25          3.9580    -0.0010     3.2830 ha         1 6QN       0.126000
     19 H26          6.4120    -0.0040     3.0670 h4         1 6QN      -0.011900
     20 H27          6.2010    -0.0030    -1.0840 h4         1 6QN      -0.009900
     21 H24         -0.1760     0.1350    -2.0290 hn         1 6QN       0.234500
     22 H19         -2.2230     1.2400    -3.0460 hc         1 6QN       0.007033
     23 H20         -2.3480    -0.5210    -3.1570 hc         1 6QN       0.007033
     24 H21         -3.7260     0.4290    -2.5840 hc         1 6QN       0.007033
     25 H23         -2.5590    -0.6600    -0.6970 h1         1 6QN       0.019700
     26 H22         -2.4320     1.1010    -0.5870 h1         1 6QN       0.019700
     27 H15          4.0360    -0.0060    -2.1510 hn         1 6QN       0.179500
     28 H28          1.5380     0.8730     2.7490 ho         1 6QN       0.418000
@<TRIPOS>BOND
     1     1     2 1   
     2     1     9 1   
     3     1    12 2   
     4     2     3 2   
     5     2    15 1   
     6     3     4 1   
     7     3    17 1   
     8     4     5 ar  
     9     4     8 ar  
    10     5     6 ar  
    11     5    18 1   
    12     6    13 ar  
    13     6    19 1   
    14     7     8 ar  
    15     7    13 ar  
    16     7    20 1   
    17     8    14 1   
    18     9    11 1   
    19     9    21 1   
    20    10    11 1   
    21    10    22 1   
    22    10    23 1   
    23    10    24 1   
    24    11    25 1   
    25    11    26 1   
    26    14    15 1   
    27    14    27 1   
    28    15    16 2   
    29    17    28 1   
@<TRIPOS>SUBSTRUCTURE
     1 6QN         1 TEMP              0 ****  ****    0 ROOT
