@<TRIPOS>MOLECULE
molecule
   35    37     1     0     0
SMALL
bcc


@<TRIPOS>ATOM
      1 C1           0.0000     0.0000     0.0000 ca         1 6QO      -0.075000
      2 C2           1.3980     0.0000     0.0000 ca         1 6QO      -0.172600
      3 C3           2.1380     0.0000    -1.2760 c          1 6QO       0.502200
      4 C4           3.6140     0.1150    -1.2760 ca         1 6QO       0.373800
      5 C5           4.3970    -1.0370    -1.3340 ca         1 6QO      -0.226300
      6 C6           5.7790    -0.9200    -1.3390 ca         1 6QO      -0.091000
      7 C7           6.3350     0.3450    -1.2870 ca         1 6QO      -0.232300
      8 C8           5.4950     1.4600    -1.2320 cp         1 6QO       0.484800
      9 C9           6.0830     2.8210    -1.1760 cp         1 6QO      -0.181500
     10 C10          7.4610     2.9930    -1.2940 ca         1 6QO      -0.098000
     11 C16          1.3980     0.0010     2.4040 ca         1 6QO      -0.173000
     12 F1          -0.6620    -0.0150     3.5730 f          1 6QO      -0.125900
     13 C17          0.0130    -0.0050     2.4020 ca         1 6QO       0.144900
     14 C           -0.6860     0.0010     1.2000 ca         1 6QO       0.054100
     15 O           -2.0460     0.0060     1.2040 oh         1 6QO      -0.503100
     16 C15          2.0920     0.0000     1.2130 ca         1 6QO      -0.064000
     17 O1           1.5360    -0.0940    -2.3280 o          1 6QO      -0.497100
     18 N            4.1800     1.3150    -1.2280 nb         1 6QO      -0.649000
     19 C14          5.2570     3.9340    -1.0100 ca         1 6QO       0.157900
     20 F            3.9200     3.7750    -0.8990 f          1 6QO      -0.099900
     21 C13          5.8150     5.2030    -0.9590 ca         1 6QO       0.060100
     22 O2           5.0150     6.2910    -0.7980 oh         1 6QO      -0.505100
     23 C12          7.1880     5.3630    -1.0720 ca         1 6QO      -0.120000
     24 C11          8.0050     4.2600    -1.2420 ca         1 6QO      -0.138000
     25 H1          -0.5430     0.0040    -0.9370 ha         1 6QO       0.169000
     26 H2           3.9300    -2.0140    -1.3740 ha         1 6QO       0.147000
     27 H3           6.4090    -1.8000    -1.3830 ha         1 6QO       0.144000
     28 H4           7.4110     0.4710    -1.2900 ha         1 6QO       0.143000
     29 H5           8.1040     2.1320    -1.4280 ha         1 6QO       0.139000
     30 H6           1.9370     0.0010     3.3440 ha         1 6QO       0.153000
     31 H7          -2.3650    -0.8660     1.0400 ho         1 6QO       0.422000
     32 H8           3.1760     0.0020     1.2170 ha         1 6QO       0.147000
     33 H9           4.9780     6.5210     0.1160 ho         1 6QO       0.421000
     34 H10          7.6210     6.3550    -1.0320 ha         1 6QO       0.148000
     35 H11          9.0770     4.3910    -1.3320 ha         1 6QO       0.140000
@<TRIPOS>BOND
     1    20    19 1   
     2    22    21 1   
     3     6     7 ar  
     4     6     5 ar  
     5     7     8 ar  
     6    19    21 ar  
     7    19     9 ar  
     8    21    23 ar  
     9     5     4 ar  
    10     8     9 1   
    11     8    18 ar  
    12     9    10 ar  
    13    23    24 ar  
    14     4    18 ar  
    15     4     3 1   
    16    10    24 ar  
    17    17     3 2   
    18     3     2 1   
    19     2    16 ar  
    20     2     1 ar  
    21    16    11 ar  
    22    11    13 ar  
    23     1    14 ar  
    24    13    14 ar  
    25    13    12 1   
    26    14    15 1   
    27     1    25 1   
    28     5    26 1   
    29     6    27 1   
    30     7    28 1   
    31    10    29 1   
    32    11    30 1   
    33    15    31 1   
    34    16    32 1   
    35    22    33 1   
    36    23    34 1   
    37    24    35 1   
@<TRIPOS>SUBSTRUCTURE
     1 6QO         1 TEMP              0 ****  ****    0 ROOT
