@<TRIPOS>MOLECULE
molecule
   50    53     1     0     0
SMALL
bcc


@<TRIPOS>ATOM
      1 C10          0.0000     0.0000     0.0000 c3         1 6QP       0.148400
      2 C15          4.8520    -0.1150     3.8010 ca         1 6QP      -0.334500
      3 C17          6.3330    -1.6570     4.8810 ca         1 6QP      -0.188500
      4 C20          4.3540    -0.9050     6.0060 ca         1 6QP      -0.188500
      5 C21          4.0270    -0.1280     4.9100 ca         1 6QP      -0.000500
      6 C24          3.9240    -2.3070    -1.4870 ca         1 6QP      -0.110000
      7 C26          9.2960    -3.8710    -0.6790 ca         1 6QP      -0.178600
      8 O01          7.0560    -4.4510    -0.9850 o          1 6QP      -0.565100
      9 C02          7.8480    -3.5870    -0.6620 c          1 6QP       0.678700
     10 C04          6.0390    -2.0660    -0.3750 ca         1 6QP       0.058600
     11 C05          5.4580    -1.2100     0.5500 ca         1 6QP      -0.187000
     12 C06          4.1080    -0.9130     0.4610 ca         1 6QP       0.106600
     13 C07          3.3360    -1.4590    -0.5610 ca         1 6QP       0.099100
     14 O08          2.0090    -1.1730    -0.6600 os         1 6QP      -0.309900
     15 C09          1.5300     0.0000     0.0000 c3         1 6QP       0.142100
     16 O11         -0.4760     0.1020    -1.3440 oh         1 6QP      -0.594800
     17 C12          2.0440     0.0000     1.4470 c3         1 6QP       0.191800
     18 N13          3.5160    -0.0500     1.3960 nh         1 6QP      -0.667900
     19 S14          4.4390     0.8810     2.4080 sy         1 6QP       1.432200
     20 C16          6.0050    -0.8780     3.7870 ca         1 6QP      -0.000500
     21 C18          5.5070    -1.6700     5.9920 ca         1 6QP       0.191900
     22 F19          5.8260    -2.4310     7.0620 f          1 6QP      -0.130900
     23 O22          3.5900     1.9140     2.8900 o          1 6QP      -0.628300
     24 O23          5.6570     1.1350     1.7200 o          1 6QP      -0.628300
     25 C25          5.2680    -2.6120    -1.3930 ca         1 6QP      -0.118000
     26 C27         10.0460    -3.6320    -1.8340 ca         1 6QP       0.078400
     27 Cl           9.2740    -3.0050    -3.2570 cl         1 6QP      -0.075400
     28 C29         11.4010    -3.8940    -1.8400 ca         1 6QP      -0.140000
     29 C30         12.0190    -4.3930    -0.7070 ca         1 6QP      -0.079000
     30 C31         11.2850    -4.6330     0.4400 ca         1 6QP      -0.171000
     31 C32          9.9270    -4.3740     0.4630 ca         1 6QP       0.173900
     32 F33          9.2120    -4.6100     1.5850 f          1 6QP      -0.124900
     33 H1          -0.3610     0.8430     0.5760 h1         1 6QP       0.034700
     34 H2          -0.3610    -0.9210     0.4420 h1         1 6QP       0.034700
     35 H3           7.2360    -2.2550     4.8690 ha         1 6QP       0.154000
     36 H4           3.7070    -0.9150     6.8750 ha         1 6QP       0.154000
     37 H5           3.1250     0.4710     4.9200 ha         1 6QP       0.154500
     38 H6           3.3260    -2.7360    -2.2830 ha         1 6QP       0.155000
     39 H7           8.0540    -1.6700     0.0090 hn         1 6QP       0.331500
     40 H8           6.0750    -0.7080     1.2850 ha         1 6QP       0.159000
     41 H9           1.8980     0.8800    -0.5140 h1         1 6QP       0.072700
     42 H10         -1.4160     0.1780    -1.3400 ho         1 6QP       0.406000
     43 H11          1.6760    -0.8830     1.9550 h1         1 6QP       0.075200
     44 H12          1.7360     0.9180     1.9340 h1         1 6QP       0.075200
     45 H13          6.6510    -0.8670     2.9170 ha         1 6QP       0.154500
     46 H14          5.7240    -3.2730    -2.1200 ha         1 6QP       0.167000
     47 H15         11.9820    -3.7090    -2.7350 ha         1 6QP       0.154000
     48 H16         13.0830    -4.5970    -0.7190 ha         1 6QP       0.147000
     49 H17         11.7760    -5.0230     1.3230 ha         1 6QP       0.154000
     50 N03          7.4040    -2.3700    -0.2890 ns         1 6QP      -0.464100
@<TRIPOS>BOND
     1    16     1 1
     2     1    15 1
     3    14    15 1
     4    14    13 1
     5    15    17 1
     6    13     6 ar
     7    13    12 ar
     8    17    18 1
     9     6    25 ar
    10    12    18 1
    11    12    11 ar
    12    25    10 ar
    13    18    19 1
    14    10    11 ar
    15    10    50 1
    16    24    19 2
    17     5     4 ar
    18     5     2 ar
    19    19     2 1
    20    19    23 2
    21     4    21 ar
    22     2    20 ar
    23    50     9 1
    24    21    22 1
    25    21     3 ar
    26    20     3 ar
    27     9     8 2
    28     9     7 1
    29    27    26 1
    30     7    26 ar
    31     7    31 ar
    32    32    31 1
    33    26    28 ar
    34    31    30 ar
    35    28    29 ar
    36    30    29 ar
    37     1    33 1
    38     1    34 1
    39     3    35 1
    40     4    36 1
    41     5    37 1
    42     6    38 1
    43    50    39 1
    44    11    40 1
    45    15    41 1
    46    16    42 1
    47    17    43 1
    48    17    44 1
    49    20    45 1
    50    25    46 1
    51    28    47 1
    52    29    48 1
    53    30    49 1
@<TRIPOS>SUBSTRUCTURE
     1 6QP         1 TEMP              0 ****  ****    0 ROOT
