@<TRIPOS>MOLECULE
6QP
   50    53     1     0     0
SMALL
bcc


@<TRIPOS>ATOM
      1 C10          0.0000     0.0000     0.0000 c3         1 6QP       0.228400
      2 C15          4.8520    -0.1150     3.8010 ca         1 6QP      -0.179500
      3 C17          6.3330    -1.6570     4.8810 ca         1 6QP      -0.161000
      4 C20          4.3540    -0.9050     6.0060 ca         1 6QP      -0.161000
      5 C21          4.0270    -0.1280     4.9100 ca         1 6QP       0.030500
      6 C24          3.9240    -2.3070    -1.4870 ca         1 6QP      -0.089000
      7 C26          9.2960    -3.8710    -0.6790 ca         1 6QP      -0.178600
      8 O01          7.0560    -4.4510    -0.9850 o          1 6QP      -0.611100
      9 C02          7.8480    -3.5870    -0.6620 c          1 6QP       0.583700
     10 C04          6.0390    -2.0660    -0.3750 ca         1 6QP      -0.091400
     11 C05          5.4580    -1.2100     0.5500 ca         1 6QP      -0.182000
     12 C06          4.1080    -0.9130     0.4610 ca         1 6QP       0.032600
     13 C07          3.3360    -1.4590    -0.5610 ca         1 6QP       0.103100
     14 O08          2.0090    -1.1730    -0.6600 os         1 6QP      -0.286900
     15 C09          1.5300     0.0000     0.0000 c3         1 6QP       0.157100
     16 O11         -0.4760     0.1020    -1.3440 oh         1 6QP      -0.579800
     17 C12          2.0440     0.0000     1.4470 c3         1 6QP       0.175800
     18 N13          3.5160    -0.0500     1.3960 nh         1 6QP      -0.337900
     19 S14          4.4390     0.8810     2.4080 sy         1 6QP       1.058200
     20 C16          6.0050    -0.8780     3.7870 ca         1 6QP       0.030500
     21 C18          5.5070    -1.6700     5.9920 ca         1 6QP       0.162900
     22 F19          5.8260    -2.4310     7.0620 f          1 6QP      -0.121900
     23 O22          3.5900     1.9140     2.8900 o          1 6QP      -0.583300
     24 O23          5.6570     1.1350     1.7200 o          1 6QP      -0.583300
     25 C25          5.2680    -2.6120    -1.3930 ca         1 6QP      -0.094000
     26 C27         10.0460    -3.6320    -1.8340 ca         1 6QP       0.012400
     27 Cl           9.2740    -3.0050    -3.2570 cl         1 6QP       0.005600
     28 C29         11.4010    -3.8940    -1.8400 ca         1 6QP      -0.115000
     29 C30         12.0190    -4.3930    -0.7070 ca         1 6QP      -0.049000
     30 C31         11.2850    -4.6330     0.4400 ca         1 6QP      -0.137000
     31 C32          9.9270    -4.3740     0.4630 ca         1 6QP       0.148900
     32 F33          9.2120    -4.6100     1.5850 f          1 6QP      -0.120900
     33 H1          -0.3610     0.8430     0.5760 h1         1 6QP      -0.005300
     34 H2          -0.3610    -0.9210     0.4420 h1         1 6QP      -0.005300
     35 H3           7.2360    -2.2550     4.8690 ha         1 6QP       0.127000
     36 H4           3.7070    -0.9150     6.8750 ha         1 6QP       0.127000
     37 H5           3.1250     0.4710     4.9200 ha         1 6QP       0.126000
     38 H6           3.3260    -2.7360    -2.2830 ha         1 6QP       0.120000
     39 H7           8.0540    -1.6700     0.0090 hn         1 6QP       0.171500
     40 H8           6.0750    -0.7080     1.2850 ha         1 6QP       0.158000
     41 H9           1.8980     0.8800    -0.5140 h1         1 6QP       0.035700
     42 H10         -1.4160     0.1780    -1.3400 ho         1 6QP       0.391000
     43 H11          1.6760    -0.8830     1.9550 h1         1 6QP       0.041700
     44 H12          1.7360     0.9180     1.9340 h1         1 6QP       0.041700
     45 H13          6.6510    -0.8670     2.9170 ha         1 6QP       0.126000
     46 H14          5.7240    -3.2730    -2.1200 ha         1 6QP       0.141000
     47 H15         11.9820    -3.7090    -2.7350 ha         1 6QP       0.122000
     48 H16         13.0830    -4.5970    -0.7190 ha         1 6QP       0.111000
     49 H17         11.7760    -5.0230     1.3230 ha         1 6QP       0.124000
     50 N03          7.4040    -2.3700    -0.2890 ns         1 6QP      -0.016100
@<TRIPOS>BOND
     1     1    15 1   
     2     1    16 1   
     3     1    33 1   
     4     1    34 1   
     5     2     5 ar  
     6     2    19 1   
     7     2    20 ar  
     8     3    20 ar  
     9     3    21 ar  
    10     3    35 1   
    11     4     5 ar  
    12     4    21 ar  
    13     4    36 1   
    14     5    37 1   
    15     6    13 ar  
    16     6    25 ar  
    17     6    38 1   
    18     7     9 1   
    19     7    26 ar  
    20     7    31 ar  
    21     8     9 2   
    22     9    50 1   
    23    10    11 ar  
    24    10    25 ar  
    25    10    50 1   
    26    11    12 ar  
    27    11    40 1   
    28    12    13 ar  
    29    12    18 1   
    30    13    14 1   
    31    14    15 1   
    32    15    17 1   
    33    15    41 1   
    34    16    42 1   
    35    17    18 1   
    36    17    43 1   
    37    17    44 1   
    38    18    19 1   
    39    19    23 2   
    40    19    24 2   
    41    20    45 1   
    42    21    22 1   
    43    25    46 1   
    44    26    27 1   
    45    26    28 ar  
    46    28    29 ar  
    47    28    47 1   
    48    29    30 ar  
    49    29    48 1   
    50    30    31 ar  
    51    30    49 1   
    52    31    32 1   
    53    39    50 1   
@<TRIPOS>SUBSTRUCTURE
     1 6QP         1 TEMP              0 ****  ****    0 ROOT
