@<TRIPOS>MOLECULE
6QR
   44    46     1     0     0
SMALL
bcc


@<TRIPOS>ATOM
      1 C10          0.0000     0.0000     0.0000 cc         1 6QR      -0.312100
      2 C11          1.8440     0.0000     1.2950 ca         1 6QR      -0.222200
      3 C13          0.8990    -0.0070     3.5290 ca         1 6QR      -0.019000
      4 C14          2.1600    -0.0030     4.0530 ca         1 6QR      -0.154000
      5 C15          3.2700    -0.0000     3.2190 ca         1 6QR      -0.089000
      6 C16          3.1200     0.0000     1.8500 ca         1 6QR      -0.122000
      7 C18         -2.6120     2.6170     0.7990 c3         1 6QR      -0.075100
      8 C1          -4.8880     3.5460     0.8070 c          1 6QR       0.691900
      9 O1          -4.3200     4.4880     1.3050 o          1 6QR      -0.594100
     10 N1          -5.1870     0.9190    -0.1790 n2         1 6QR      -0.530900
     11 S1          -2.1410     0.0070     1.7770 ss         1 6QR      -0.242700
     12 C12          0.7230    -0.0060     2.1450 ca         1 6QR      -0.069800
     13 C17         -2.9070     1.6280    -0.3310 c3         1 6QR      -0.082700
     14 C2          -4.7740     3.2940    -0.6740 c3         1 6QR      -0.177700
     15 O2          -6.5570     4.8650    -1.1130 oh         1 6QR      -0.597800
     16 N2           1.3760     0.0000     0.0000 na         1 6QR       0.345600
     17 C3          -6.1350     3.5180    -1.3350 c3         1 6QR       0.198100
     18 C4          -6.0200     3.2610    -2.8390 c3         1 6QR      -0.032100
     19 C5          -4.3230     1.8510    -0.9120 c3         1 6QR       0.112500
     20 C6          -4.5260     0.0160     0.4300 ce         1 6QR       0.393300
     21 C7          -5.1360    -1.0600     1.2470 c          1 6QR       0.883300
     22 C8          -3.0390     0.1840     0.2110 c3         1 6QR      -0.008900
     23 C9          -0.4540    -0.0000     1.2680 cd         1 6QR       0.034400
     24 H1          -0.6240    -0.0020    -0.8860 h4         1 6QR       0.150000
     25 H2           0.0370    -0.0090     4.1860 ha         1 6QR       0.116000
     26 H3           2.2960    -0.0030     5.1280 ha         1 6QR       0.098000
     27 H4           4.2640     0.0030     3.6490 ha         1 6QR       0.090000
     28 H5           3.9920     0.0030     1.2070 ha         1 6QR       0.091000
     29 H8          -2.6780     3.6300     0.4190 hc         1 6QR       0.039033
     30 H9          -5.5030     2.8990     1.4220 h4         1 6QR      -0.007800
     31 H12         -2.1570     1.6810    -1.1110 hc         1 6QR       0.022700
     32 H13         -4.0480     3.9740    -1.1010 hc         1 6QR       0.051700
     33 H14         -7.4970     4.8930    -1.0450 ho         1 6QR       0.385000
     34 H15          1.9520     0.0000    -0.8190 hn         1 6QR       0.105700
     35 H16         -6.8610     2.8370    -0.9070 h1         1 6QR       0.036700
     36 H18         -6.1910     2.2100    -3.0410 hc         1 6QR       0.008033
     37 H19         -5.0290     3.5360    -3.1780 hc         1 6QR       0.008033
     38 H20         -6.7590     3.8540    -3.3650 hc         1 6QR       0.008033
     39 H21         -4.3340     1.6170    -1.9700 h1         1 6QR       0.034700
     40 H23         -2.6820    -0.5290    -0.5220 h1         1 6QR       0.054700
     41 H6          -3.3340     2.4820     1.5950 hc         1 6QR       0.039033
     42 O3          -6.4760    -1.1830     1.3080 o          1 6QR      -0.848300
     43 O4          -4.4290    -1.8300     1.8630 o          1 6QR      -0.848300
     44 H7          -1.6140     2.4400     1.1820 hc         1 6QR       0.039033
@<TRIPOS>BOND
     1     1    16 1   
     2     1    23 2   
     3     1    24 1   
     4     2     6 ar  
     5     2    12 ar  
     6     2    16 1   
     7     3     4 ar  
     8     3    12 ar  
     9     3    25 1   
    10     4     5 ar  
    11     4    26 1   
    12     5     6 ar  
    13     5    27 1   
    14     6    28 1   
    15     7    13 1   
    16     7    29 1   
    17     7    41 1   
    18     7    44 1   
    19     8     9 2   
    20     8    14 1   
    21     8    30 1   
    22    10    19 1   
    23    10    20 2   
    24    11    22 1   
    25    11    23 1   
    26    12    23 1   
    27    13    19 1   
    28    13    22 1   
    29    13    31 1   
    30    14    17 1   
    31    14    19 1   
    32    14    32 1   
    33    15    17 1   
    34    15    33 1   
    35    16    34 1   
    36    17    18 1   
    37    17    35 1   
    38    18    36 1   
    39    18    37 1   
    40    18    38 1   
    41    19    39 1   
    42    20    21 1   
    43    20    22 1   
    44    21    42 1   
    45    21    43 1   
    46    22    40 1   
@<TRIPOS>SUBSTRUCTURE
     1 6QR         1 TEMP              0 ****  ****    0 ROOT
