@<TRIPOS>MOLECULE
molecule
   44    46     1     0     0
SMALL
bcc


@<TRIPOS>ATOM
      1 C10          0.0000     0.0000     0.0000 cc         1 6QR      -0.141100
      2 C11          1.8440     0.0000     1.2950 ca         1 6QR      -0.032200
      3 C13          0.8990    -0.0070     3.5290 ca         1 6QR      -0.059000
      4 C14          2.1600    -0.0030     4.0530 ca         1 6QR      -0.175000
      5 C15          3.2700    -0.0000     3.2190 ca         1 6QR      -0.112000
      6 C16          3.1200     0.0000     1.8500 ca         1 6QR      -0.160000
      7 C18         -2.6120     2.6170     0.7990 c3         1 6QR      -0.108100
      8 C1          -4.8880     3.5460     0.8070 c          1 6QR       0.604900
      9 O1          -4.3200     4.4880     1.3050 o          1 6QR      -0.562100
     10 N1          -5.1870     0.9190    -0.1790 n2         1 6QR      -0.578900
     11 S1          -2.1410     0.0070     1.7770 ss         1 6QR      -0.121700
     12 C12          0.7230    -0.0060     2.1450 ca         1 6QR      -0.078800
     13 C17         -2.9070     1.6280    -0.3310 c3         1 6QR      -0.110700
     14 C2          -4.7740     3.2940    -0.6740 c3         1 6QR      -0.167700
     15 O2          -6.5570     4.8650    -1.1130 oh         1 6QR      -0.616800
     16 N2           1.3760     0.0000     0.0000 na         1 6QR      -0.188400
     17 C3          -6.1350     3.5180    -1.3350 c3         1 6QR       0.153100
     18 C4          -6.0200     3.2610    -2.8390 c3         1 6QR      -0.115100
     19 C5          -4.3230     1.8510    -0.9120 c3         1 6QR       0.098500
     20 C6          -4.5260     0.0160     0.4300 ce         1 6QR       0.415300
     21 C7          -5.1360    -1.0600     1.2470 c          1 6QR       0.799300
     22 C8          -3.0390     0.1840     0.2110 c3         1 6QR      -0.101900
     23 C9          -0.4540    -0.0000     1.2680 cd         1 6QR      -0.019600
     24 H1          -0.6240    -0.0020    -0.8860 h4         1 6QR       0.168000
     25 H2           0.0370    -0.0090     4.1860 ha         1 6QR       0.143000
     26 H3           2.2960    -0.0030     5.1280 ha         1 6QR       0.121000
     27 H4           4.2640     0.0030     3.6490 ha         1 6QR       0.117000
     28 H5           3.9920     0.0030     1.2070 ha         1 6QR       0.114000
     29 H8          -2.6780     3.6300     0.4190 hc         1 6QR       0.054367
     30 H9          -5.5030     2.8990     1.4220 h4         1 6QR       0.026200
     31 H12         -2.1570     1.6810    -1.1110 hc         1 6QR       0.044700
     32 H13         -4.0480     3.9740    -1.1010 hc         1 6QR       0.072700
     33 H14         -7.4970     4.8930    -1.0450 ho         1 6QR       0.397000
     34 H15          1.9520     0.0000    -0.8190 hn         1 6QR       0.285700
     35 H16         -6.8610     2.8370    -0.9070 h1         1 6QR       0.068700
     36 H18         -6.1910     2.2100    -3.0410 hc         1 6QR       0.037367
     37 H19         -5.0290     3.5360    -3.1780 hc         1 6QR       0.037367
     38 H20         -6.7590     3.8540    -3.3650 hc         1 6QR       0.037367
     39 H21         -4.3340     1.6170    -1.9700 h1         1 6QR       0.062700
     40 H23         -2.6820    -0.5290    -0.5220 h1         1 6QR       0.078700
     41 H6          -3.3340     2.4820     1.5950 hc         1 6QR       0.054367
     42 O3          -6.4760    -1.1830     1.3080 o          1 6QR      -0.796800
     43 O4          -4.4290    -1.8300     1.8630 o          1 6QR      -0.796800
     44 H7          -1.6140     2.4400     1.1820 hc         1 6QR       0.054367
@<TRIPOS>BOND
     1     6     5 ar
     2     6     2 ar
     3     5     4 ar
     4     2    16 1
     5     2    12 ar
     6    16     1 1
     7     4     3 ar
     8     1    23 2
     9    12     3 ar
    10    12    23 1
    11    43    21 1
    12    23    11 1
    13    42    21 1
    14    21    20 1
    15    20    22 1
    16    20    10 2
    17    11    22 1
    18    22    13 1
    19    10    19 1
    20     9     8 2
    21    13    19 1
    22    13     7 1
    23    19    14 1
    24     8    14 1
    25    14    17 1
    26    17    18 1
    27    17    15 1
    28     1    24 1
    29     3    25 1
    30     4    26 1
    31     5    27 1
    32     6    28 1
    33     7    41 1
    34     7    44 1
    35     7    29 1
    36     8    30 1
    37    13    31 1
    38    14    32 1
    39    15    33 1
    40    16    34 1
    41    17    35 1
    42    18    36 1
    43    18    37 1
    44    18    38 1
    45    19    39 1
    46    22    40 1
@<TRIPOS>SUBSTRUCTURE
     1 6QR         1 TEMP              0 ****  ****    0 ROOT
