@<TRIPOS>MOLECULE
molecule
   68    73     1     0     0
SMALL
bcc


@<TRIPOS>ATOM
      1 O01          0.0000     0.0000     0.0000 o          1 6QS      -0.537100
      2 C02          1.2150     0.0000     0.0000 c          1 6QS       0.589300
      3 C03          1.9530     0.0000     1.3120 c3         1 6QS      -0.179400
      4 C04          3.3100    -0.6860     1.1200 c3         1 6QS      -0.072400
      5 C05          4.0680     0.0400     0.0060 c3         1 6QS      -0.055200
      6 C06          3.2540     0.0100    -1.2630 c2         1 6QS       0.172800
      7 C07          1.9050    -0.0060    -1.2240 ce         1 6QS      -0.278400
      8 C08          1.0980    -0.0240    -2.4980 c3         1 6QS       0.126000
      9 C09          1.9380    -0.4570    -3.6620 ce         1 6QS      -0.222400
     10 C10          1.3070    -0.8980    -4.8490 c          1 6QS       0.669300
     11 O11          1.2880    -0.1040    -5.9390 os         1 6QS      -0.408900
     12 C12          0.6330    -0.6120    -7.1020 c3         1 6QS       0.146400
     13 C13          0.7140     0.4210    -8.2270 c3         1 6QS       0.132100
     14 O14         -0.0680     1.5780    -7.8850 os         1 6QS      -0.393600
     15 C15         -0.6280     2.0880    -9.1140 c3         1 6QS       0.122400
     16 C16         -1.0280     0.8060    -9.8890 c3         1 6QS      -0.116400
     17 C17          0.1210    -0.1660    -9.5220 c3         1 6QS      -0.112400
     18 O18          0.7800    -1.9950    -4.8850 o          1 6QS      -0.548000
     19 C19          3.2810    -0.4340    -3.6000 c2         1 6QS       0.143800
     20 C20          4.0930    -0.8700    -4.7920 c3         1 6QS      -0.065900
     21 N21          3.9150    -0.0060    -2.4620 nu         1 6QS      -0.634800
     22 C22          0.5620     1.3600    -2.7620 ca         1 6QS      -0.114300
     23 C23          1.4400     2.4190    -2.9340 ca         1 6QS      -0.079000
     24 C24          0.9660     3.6900    -3.1770 ca         1 6QS      -0.162000
     25 C25         -0.7990     1.5660    -2.8380 ca         1 6QS      -0.044000
     26 C26         -1.2920     2.8470    -3.0830 cp         1 6QS      -0.089000
     27 C27         -0.4060     3.9200    -3.2510 ca         1 6QS       0.012800
     28 N28         -1.1460     5.0670    -3.4770 na         1 6QS      -0.084300
     29 C29         -0.5800     6.3980    -3.7060 c3         1 6QS       0.054300
     30 C30         -0.3500     6.6030    -5.2050 c3         1 6QS      -0.119100
     31 C31         -2.4980     4.7750    -3.4550 ca         1 6QS       0.008800
     32 C32         -2.6510     3.4000    -3.2200 cp         1 6QS      -0.083000
     33 C33         -3.9250     2.8420    -3.1550 ca         1 6QS      -0.069000
     34 C34         -5.0340     3.6420    -3.3310 ca         1 6QS      -0.168000
     35 C35         -4.8840     4.9990    -3.5720 ca         1 6QS      -0.101000
     36 C36         -3.6290     5.5680    -3.6250 ca         1 6QS      -0.162000
     37 H1           2.1070     1.0210     1.6400 hc         1 6QS       0.072700
     38 H2           1.3760    -0.5410     2.0510 hc         1 6QS       0.072700
     39 H3           3.8780    -0.6310     2.0410 hc         1 6QS       0.054200
     40 H4           3.1570    -1.7210     0.8400 hc         1 6QS       0.054200
     41 H5           5.0170    -0.4540    -0.1630 hc         1 6QS       0.058700
     42 H6           4.2390     1.0690     0.3000 hc         1 6QS       0.058700
     43 H7          -0.4070    -0.8140    -6.8710 h1         1 6QS       0.054700
     44 H8           1.1170    -1.5290    -7.4180 h1         1 6QS       0.054700
     45 H9           1.7440     0.7110    -8.3940 h1         1 6QS       0.051700
     46 H10          0.1170     2.6490    -9.6670 h1         1 6QS       0.051700
     47 H11         -1.9800     0.4260    -9.5370 hc         1 6QS       0.056200
     48 H12          0.8680    -0.1800   -10.3060 hc         1 6QS       0.054200
     49 H13         -0.2690    -1.1600    -9.3420 hc         1 6QS       0.054200
     50 H14          5.1300    -0.9890    -4.4990 hc         1 6QS       0.059367
     51 H15          4.0220    -0.1200    -5.5710 hc         1 6QS       0.059367
     52 H16          3.7120    -1.8130    -5.1630 hc         1 6QS       0.059367
     53 H17          2.5080     2.2460    -2.8780 ha         1 6QS       0.125000
     54 H18          1.6600     4.5110    -3.3100 ha         1 6QS       0.122000
     55 H19         -1.4820     0.7570    -2.6140 ha         1 6QS       0.142000
     56 H20         -1.2670     7.1500    -3.3400 h1         1 6QS       0.055200
     57 H21          0.3640     6.4840    -3.1810 h1         1 6QS       0.055200
     58 H22         -0.5850     7.6270    -5.4690 hc         1 6QS       0.045700
     59 H23          0.6860     6.3970    -5.4430 hc         1 6QS       0.045700
     60 H24         -0.9900     5.9300    -5.7630 hc         1 6QS       0.045700
     61 H25         -4.0440     1.7820    -2.9670 ha         1 6QS       0.134000
     62 H26         -6.0250     3.2070    -3.2910 ha         1 6QS       0.129000
     63 H27         -5.7620     5.6200    -3.7080 ha         1 6QS       0.127000
     64 H28         -3.5230     6.6290    -3.8140 ha         1 6QS       0.124000
     65 H29          0.2710    -0.7140    -2.3820 hc         1 6QS       0.086700
     66 H30         -1.5000     2.6970    -8.9110 h1         1 6QS       0.051700
     67 H31         -1.0480     0.9920   -10.9560 hc         1 6QS       0.056200
     68 H32          4.8690     0.2940    -2.5080 hn         1 6QS       0.448800
@<TRIPOS>BOND
     1     1     2 2   
     2    14    15 1   
     3    14    13 1   
     4     2     7 1   
     5     2     3 1   
     6    15    16 1   
     7    23    24 ar  
     8    23    22 ar  
     9     8     7 1   
    10     8     9 1   
    11     8    22 1   
    12    11    10 1   
    13    11    12 1   
    14     7     6 2   
    15     3     4 1   
    16     4     5 1   
    17    13    12 1   
    18    13    17 1   
    19    10     9 1   
    20    10    18 2   
    21    24    27 ar  
    22     9    19 2   
    23    22    25 ar  
    24     6     5 1   
    25     6    21 1   
    26    16    17 1   
    27    19    21 1   
    28    19    20 1   
    29    27    26 ar  
    30    27    28 1   
    31    25    26 ar  
    32    29    28 1   
    33    29    30 1   
    34    26    32 1   
    35    28    31 1   
    36    31    32 ar  
    37    31    36 ar  
    38    32    33 ar  
    39    36    35 ar  
    40    33    34 ar  
    41    35    34 ar  
    42     3    37 1   
    43     3    38 1   
    44     4    39 1   
    45     4    40 1   
    46     5    41 1   
    47     5    42 1   
    48    12    43 1   
    49    12    44 1   
    50    13    45 1   
    51    15    46 1   
    52    16    47 1   
    53    17    48 1   
    54    17    49 1   
    55    20    50 1   
    56    20    51 1   
    57    20    52 1   
    58    23    53 1   
    59    24    54 1   
    60    25    55 1   
    61    29    56 1   
    62    29    57 1   
    63    30    58 1   
    64    30    59 1   
    65    30    60 1   
    66    33    61 1   
    67    34    62 1   
    68    35    63 1   
    69    36    64 1   
    70     8    65 1   
    71    15    66 1   
    72    16    67 1   
    73    21    68 1   
@<TRIPOS>SUBSTRUCTURE
     1 6QS         1 TEMP              0 ****  ****    0 ROOT
