@<TRIPOS>MOLECULE
6QS
   68    73     1     0     0
SMALL
bcc


@<TRIPOS>ATOM
      1 O01          0.0000     0.0000     0.0000 o          1 6QS      -0.573100
      2 C02          1.2150     0.0000     0.0000 c          1 6QS       0.634300
      3 C03          1.9530     0.0000     1.3120 c3         1 6QS      -0.117400
      4 C04          3.3100    -0.6860     1.1200 c3         1 6QS      -0.013400
      5 C05          4.0680     0.0400     0.0060 c3         1 6QS       0.020800
      6 C06          3.2540     0.0100    -1.2630 c2         1 6QS       0.003800
      7 C07          1.9050    -0.0060    -1.2240 ce         1 6QS      -0.293400
      8 C08          1.0980    -0.0240    -2.4980 c3         1 6QS       0.190000
      9 C09          1.9380    -0.4570    -3.6620 ce         1 6QS      -0.239400
     10 C10          1.3070    -0.8980    -4.8490 c          1 6QS       0.738300
     11 O11          1.2880    -0.1040    -5.9390 os         1 6QS      -0.392900
     12 C12          0.6330    -0.6120    -7.1020 c3         1 6QS       0.210400
     13 C13          0.7140     0.4210    -8.2270 c3         1 6QS       0.166100
     14 O14         -0.0680     1.5780    -7.8850 os         1 6QS      -0.388600
     15 C15         -0.6280     2.0880    -9.1140 c3         1 6QS       0.205400
     16 C16         -1.0280     0.8060    -9.8890 c3         1 6QS      -0.059400
     17 C17          0.1210    -0.1660    -9.5220 c3         1 6QS      -0.055400
     18 O18          0.7800    -1.9950    -4.8850 o          1 6QS      -0.587000
     19 C19          3.2810    -0.4340    -3.6000 c2         1 6QS      -0.031200
     20 C20          4.0930    -0.8700    -4.7920 c3         1 6QS       0.049100
     21 N21          3.9150    -0.0060    -2.4620 nu         1 6QS      -0.143800
     22 C22          0.5620     1.3600    -2.7620 ca         1 6QS      -0.129300
     23 C23          1.4400     2.4190    -2.9340 ca         1 6QS      -0.063000
     24 C24          0.9660     3.6900    -3.1770 ca         1 6QS      -0.127000
     25 C25         -0.7990     1.5660    -2.8380 ca         1 6QS      -0.008000
     26 C26         -1.2920     2.8470    -3.0830 cp         1 6QS      -0.083000
     27 C27         -0.4060     3.9200    -3.2510 ca         1 6QS      -0.154200
     28 N28         -1.1460     5.0670    -3.4770 na         1 6QS       0.364700
     29 C29         -0.5800     6.3980    -3.7060 c3         1 6QS      -0.033700
     30 C30         -0.3500     6.6030    -5.2050 c3         1 6QS      -0.021100
     31 C31         -2.4980     4.7750    -3.4550 ca         1 6QS      -0.156200
     32 C32         -2.6510     3.4000    -3.2200 cp         1 6QS      -0.080000
     33 C33         -3.9250     2.8420    -3.1550 ca         1 6QS      -0.034000
     34 C34         -5.0340     3.6420    -3.3310 ca         1 6QS      -0.143000
     35 C35         -4.8840     4.9990    -3.5720 ca         1 6QS      -0.075000
     36 C36         -3.6290     5.5680    -3.6250 ca         1 6QS      -0.128000
     37 H1           2.1070     1.0210     1.6400 hc         1 6QS       0.039700
     38 H2           1.3760    -0.5410     2.0510 hc         1 6QS       0.039700
     39 H3           3.8780    -0.6310     2.0410 hc         1 6QS       0.021700
     40 H4           3.1570    -1.7210     0.8400 hc         1 6QS       0.021700
     41 H5           5.0170    -0.4540    -0.1630 hc         1 6QS       0.023700
     42 H6           4.2390     1.0690     0.3000 hc         1 6QS       0.023700
     43 H7          -0.4070    -0.8140    -6.8710 h1         1 6QS       0.017200
     44 H8           1.1170    -1.5290    -7.4180 h1         1 6QS       0.017200
     45 H9           1.7440     0.7110    -8.3940 h1         1 6QS       0.017700
     46 H10          0.1170     2.6490    -9.6670 h1         1 6QS       0.009700
     47 H11         -1.9800     0.4260    -9.5370 hc         1 6QS       0.024700
     48 H12          0.8680    -0.1800   -10.3060 hc         1 6QS       0.024200
     49 H13         -0.2690    -1.1600    -9.3420 hc         1 6QS       0.024200
     50 H14          5.1300    -0.9890    -4.4990 hc         1 6QS       0.020367
     51 H15          4.0220    -0.1200    -5.5710 hc         1 6QS       0.020367
     52 H16          3.7120    -1.8130    -5.1630 hc         1 6QS       0.020367
     53 H17          2.5080     2.2460    -2.8780 ha         1 6QS       0.095000
     54 H18          1.6600     4.5110    -3.3100 ha         1 6QS       0.099000
     55 H19         -1.4820     0.7570    -2.6140 ha         1 6QS       0.115000
     56 H20         -1.2670     7.1500    -3.3400 h1         1 6QS       0.028700
     57 H21          0.3640     6.4840    -3.1810 h1         1 6QS       0.028700
     58 H22         -0.5850     7.6270    -5.4690 hc         1 6QS       0.012367
     59 H23          0.6860     6.3970    -5.4430 hc         1 6QS       0.012367
     60 H24         -0.9900     5.9300    -5.7630 hc         1 6QS       0.012367
     61 H25         -4.0440     1.7820    -2.9670 ha         1 6QS       0.104000
     62 H26         -6.0250     3.2070    -3.2910 ha         1 6QS       0.103000
     63 H27         -5.7620     5.6200    -3.7080 ha         1 6QS       0.098000
     64 H28         -3.5230     6.6290    -3.8140 ha         1 6QS       0.101000
     65 H29          0.2710    -0.7140    -2.3820 hc         1 6QS       0.055700
     66 H30         -1.5000     2.6970    -8.9110 h1         1 6QS       0.009700
     67 H31         -1.0480     0.9920   -10.9560 hc         1 6QS       0.024700
     68 H32          4.8690     0.2940    -2.5080 hn         1 6QS       0.278800
@<TRIPOS>BOND
     1     1     2 2   
     2     2     3 1   
     3     2     7 1   
     4     3     4 1   
     5     3    37 1   
     6     3    38 1   
     7     4     5 1   
     8     4    39 1   
     9     4    40 1   
    10     5     6 1   
    11     5    41 1   
    12     5    42 1   
    13     6     7 2   
    14     6    21 1   
    15     7     8 1   
    16     8     9 1   
    17     8    22 1   
    18     8    65 1   
    19     9    10 1   
    20     9    19 2   
    21    10    11 1   
    22    10    18 2   
    23    11    12 1   
    24    12    13 1   
    25    12    43 1   
    26    12    44 1   
    27    13    14 1   
    28    13    17 1   
    29    13    45 1   
    30    14    15 1   
    31    15    16 1   
    32    15    46 1   
    33    15    66 1   
    34    16    17 1   
    35    16    47 1   
    36    16    67 1   
    37    17    48 1   
    38    17    49 1   
    39    19    20 1   
    40    19    21 1   
    41    20    50 1   
    42    20    51 1   
    43    20    52 1   
    44    21    68 1   
    45    22    23 ar  
    46    22    25 ar  
    47    23    24 ar  
    48    23    53 1   
    49    24    27 ar  
    50    24    54 1   
    51    25    26 ar  
    52    25    55 1   
    53    26    27 ar  
    54    26    32 1   
    55    27    28 1   
    56    28    29 1   
    57    28    31 1   
    58    29    30 1   
    59    29    56 1   
    60    29    57 1   
    61    30    58 1   
    62    30    59 1   
    63    30    60 1   
    64    31    32 ar  
    65    31    36 ar  
    66    32    33 ar  
    67    33    34 ar  
    68    33    61 1   
    69    34    35 ar  
    70    34    62 1   
    71    35    36 ar  
    72    35    63 1   
    73    36    64 1   
@<TRIPOS>SUBSTRUCTURE
     1 6QS         1 TEMP              0 ****  ****    0 ROOT
