@<TRIPOS>MOLECULE
molecule
   31    33     1     0     0
SMALL
bcc


@<TRIPOS>ATOM
      1 CAI          0.0000     0.0000     0.0000 c3         1 6QT      -0.204400
      2 CAH          1.5180     0.0000     0.0000 c          1 6QT       0.579700
      3 OAS          2.1570    -0.0000    -1.0320 o          1 6QT      -0.513100
      4 CAE          2.1770     0.0000     1.3180 ca         1 6QT      -0.247600
      5 CAD          3.5460     0.2490     1.4310 ca         1 6QT      -0.063000
      6 CAC          4.1410     0.2370     2.6790 ca         1 6QT       0.057100
      7 OAQ          5.4730     0.4800     2.7990 oh         1 6QT      -0.516100
      8 CAB          3.3780    -0.0230     3.8110 ca         1 6QT      -0.092000
      9 CAA          2.0240    -0.2680     3.7070 ca         1 6QT      -0.160000
     10 CAF          1.4070    -0.2570     2.4640 ca         1 6QT       0.175100
     11 OAG          0.0760    -0.4860     2.3680 os         1 6QT      -0.326900
     12 CAJ         -0.4540    -0.9440     1.1240 c3         1 6QT       0.205400
     13 CAM         -1.9580    -0.9570     1.1920 ca         1 6QT      -0.081300
     14 CAN         -2.6660    -1.9980     0.6220 ca         1 6QT      -0.140000
     15 CAO         -4.0510    -2.0100     0.6850 ca         1 6QT       0.105100
     16 OAR         -4.7490    -3.0340     0.1260 oh         1 6QT      -0.519100
     17 CAP         -4.7240    -0.9770     1.3220 ca         1 6QT      -0.141000
     18 CAK         -4.0120     0.0620     1.8890 ca         1 6QT      -0.117000
     19 CAL         -2.6300     0.0690     1.8290 ca         1 6QT      -0.108000
     20 H1          -0.3570     1.0010     0.2090 hc         1 6QT       0.089700
     21 H2          -0.3570    -0.3790    -0.9500 hc         1 6QT       0.089700
     22 H3           4.1120     0.5680     0.5640 ha         1 6QT       0.164000
     23 H4           5.9520    -0.3240     2.6800 ho         1 6QT       0.419000
     24 H5           3.8510    -0.0320     4.7860 ha         1 6QT       0.147000
     25 H6           1.4410    -0.4690     4.5970 ha         1 6QT       0.151000
     26 H7          -0.0870    -1.9430     0.9230 h1         1 6QT       0.060700
     27 H8          -2.1380    -2.8250     0.1630 ha         1 6QT       0.142000
     28 H9          -4.8380    -3.7320     0.7530 ho         1 6QT       0.421000
     29 H10         -5.8060    -0.9830     1.3700 ha         1 6QT       0.143000
     30 H11         -4.5360     0.8680     2.3880 ha         1 6QT       0.138000
     31 H12         -2.0740     0.8850     2.2750 ha         1 6QT       0.145000
@<TRIPOS>BOND
     1     3     2 2
     2     2     1 1
     3     2     4 1
     4     1    12 1
     5     5     4 ar
     6     5     6 ar
     7     4    10 ar
     8    11    10 1
     9    11    12 1
    10     7     6 1
    11     6     8 ar
    12    10     9 ar
    13    16    15 1
    14     8     9 ar
    15    14    15 ar
    16    14    13 ar
    17    12    13 1
    18    15    17 ar
    19    13    19 ar
    20    17    18 ar
    21    19    18 ar
    22     1    20 1
    23     1    21 1
    24     5    22 1
    25     7    23 1
    26     8    24 1
    27     9    25 1
    28    12    26 1
    29    14    27 1
    30    16    28 1
    31    17    29 1
    32    18    30 1
    33    19    31 1
@<TRIPOS>SUBSTRUCTURE
     1 6QT         1 TEMP              0 ****  ****    0 ROOT
