@<TRIPOS>MOLECULE
molecule
   36    38     1     0     0
SMALL
bcc


@<TRIPOS>ATOM
      1 C1           0.0000     0.0000     0.0000 ca         1 6QU      -0.121000
      2 C2           1.3830     0.0000     0.0000 ca         1 6QU      -0.137000
      3 C3           2.0770     0.0000     1.1930 ca         1 6QU      -0.098000
      4 C4           1.3850    -0.0010     2.4030 cp         1 6QU      -0.180500
      5 C5           2.1290    -0.0000     3.6860 cp         1 6QU       0.481800
      6 C6           3.5210    -0.1160     3.6770 ca         1 6QU      -0.232300
      7 C7           4.2060    -0.1150     4.8800 ca         1 6QU      -0.092000
      8 C8           3.4830     0.0020     6.0570 ca         1 6QU      -0.222300
      9 C17         -0.0100    -0.0020     2.4030 ca         1 6QU       0.157900
     10 C           -0.6990     0.0050     1.1990 ca         1 6QU       0.059100
     11 O           -2.0580     0.0160     1.1930 oh         1 6QU      -0.505100
     12 N            1.4670     0.1140     4.8270 nb         1 6QU      -0.654000
     13 C9           2.0950     0.1130     5.9950 ca         1 6QU       0.374800
     14 C10          1.3130     0.2370     7.2470 c          1 6QU       0.497200
     15 O1           0.9820    -0.7600     7.8590 o          1 6QU      -0.475100
     16 C11          0.9360     1.5690     7.7510 ca         1 6QU      -0.196600
     17 C16          0.2970     1.6970     8.9930 ca         1 6QU       0.179100
     18 O3           0.0260     0.5960     9.7380 oh         1 6QU      -0.490100
     19 C15         -0.0530     2.9580     9.4590 ca         1 6QU       0.007100
     20 O2          -0.6720     3.0920    10.6640 oh         1 6QU      -0.503100
     21 C14          0.2270     4.0820     8.6950 ca         1 6QU       0.149900
     22 F           -0.1160     5.3070     9.1510 f          1 6QU      -0.125900
     23 C13          0.8590     3.9540     7.4660 ca         1 6QU      -0.187000
     24 C12          1.2170     2.7120     6.9940 ca         1 6QU      -0.047000
     25 H1          -0.5400     0.0030    -0.9390 ha         1 6QU       0.147000
     26 H2           1.9230    -0.0020    -0.9390 ha         1 6QU       0.140000
     27 H3           3.1600     0.0000     1.1900 ha         1 6QU       0.139000
     28 H4           4.0580    -0.2060     2.7410 ha         1 6QU       0.143000
     29 H5           5.2860    -0.2030     4.9000 ha         1 6QU       0.144000
     30 H6           3.9910     0.0040     7.0140 ha         1 6QU       0.149000
     31 H7          -2.3650     0.9030     1.1080 ho         1 6QU       0.422000
     32 H8          -0.9040     0.4420     9.7450 ho         1 6QU       0.443000
     33 H9          -0.0340     3.3170    11.3210 ho         1 6QU       0.427000
     34 H10          1.0750     4.8370     6.8770 ha         1 6QU       0.153000
     35 H11          1.7090     2.6180     6.0340 ha         1 6QU       0.153000
     36 F1          -0.6880     0.0040     3.5710 f          1 6QU      -0.099900
@<TRIPOS>BOND
     1    36     9 1
     2    11    10 1
     3    15    14 2
     4    18    17 1
     5     9    10 ar
     6     9     4 ar
     7    10     1 ar
     8     8     7 ar
     9     8    13 ar
    10     7     6 ar
    11    14    13 1
    12    14    16 1
    13    13    12 ar
    14     6     5 ar
    15    12     5 ar
    16     5     4 1
    17     4     3 ar
    18    17    16 ar
    19    17    19 ar
    20     1     2 ar
    21    16    24 ar
    22    20    19 1
    23    19    21 ar
    24     3     2 ar
    25    24    23 ar
    26    21    23 ar
    27    21    22 1
    28     1    25 1
    29     2    26 1
    30     3    27 1
    31     6    28 1
    32     7    29 1
    33     8    30 1
    34    11    31 1
    35    18    32 1
    36    20    33 1
    37    23    34 1
    38    24    35 1
@<TRIPOS>SUBSTRUCTURE
     1 6QU         1 TEMP              0 ****  ****    0 ROOT
