@<TRIPOS>MOLECULE
6QV
   28    29     1     0     0
SMALL
bcc


@<TRIPOS>ATOM
      1 CAH          0.0000     0.0000     0.0000 ca         1 6QV      -0.173500
      2 CAJ          1.3820     0.0000     0.0000 ca         1 6QV       0.001000
      3 CAP          2.0750     0.0000     1.1950 ca         1 6QV      -0.528200
      4 NAR          3.5550    -0.0000     1.1920 no         1 6QV       1.069200
      5 OAC          4.1670    -0.0000     2.2450 o          1 6QV      -0.485500
      6 OAA          4.1610     0.0000     0.1350 o          1 6QV      -0.485500
      7 CAK          1.3880     0.0000     2.3960 ca         1 6QV       0.001000
      8 CAI          0.0060     0.0000     2.4020 ca         1 6QV      -0.173500
      9 CAO         -0.6910     0.0000     1.2030 ca         1 6QV       0.326100
     10 OAN         -2.0500     0.0050     1.2070 os         1 6QV      -0.381500
     11 PAS         -2.7110    -1.4640     1.2050 p5         1 6QV       0.688900
     12 OAD         -2.1870    -2.2390     0.0590 o          1 6QV      -0.628000
     13 OAB         -2.3430    -2.2190     2.5780 o          1 6QV      -0.628000
     14 CAQ         -4.5140    -1.3160     1.0610 ca         1 6QV      -0.052500
     15 CAL         -5.3080    -2.4430     1.1420 ca         1 6QV      -0.043000
     16 CAF         -6.6810    -2.3310     1.0320 ca         1 6QV      -0.146500
     17 CAE         -7.2600    -1.0910     0.8410 ca         1 6QV      -0.117000
     18 CAG         -6.4660     0.0380     0.7590 ca         1 6QV      -0.146500
     19 CAM         -5.0920    -0.0740     0.8760 ca         1 6QV      -0.043000
     20 H1          -0.5430     0.0000    -0.9380 ha         1 6QV       0.130500
     21 H2           1.9220    -0.0000    -0.9390 ha         1 6QV       0.113500
     22 H3           1.9330     0.0000     3.3320 ha         1 6QV       0.113500
     23 H4          -0.5320     0.0000     3.3420 ha         1 6QV       0.130500
     24 H6          -4.8550    -3.4160     1.2920 ha         1 6QV       0.105000
     25 H7          -7.3040    -3.2150     1.0960 ha         1 6QV       0.084000
     26 H8          -8.3360    -1.0030     0.7520 ha         1 6QV       0.080000
     27 H9          -6.9190     1.0110     0.6120 ha         1 6QV       0.084000
     28 H10         -4.4690     0.8100     0.8120 ha         1 6QV       0.105000
@<TRIPOS>BOND
     1     1     2 ar  
     2     1     9 ar  
     3     1    20 1   
     4     2     3 ar  
     5     2    21 1   
     6     3     4 1   
     7     3     7 ar  
     8     4     5 1   
     9     4     6 1   
    10     7     8 ar  
    11     7    22 1   
    12     8     9 ar  
    13     8    23 1   
    14     9    10 1   
    15    10    11 1   
    16    11    12 1   
    17    11    13 1   
    18    11    14 1   
    19    14    15 ar  
    20    14    19 ar  
    21    15    16 ar  
    22    15    24 1   
    23    16    17 ar  
    24    16    25 1   
    25    17    18 ar  
    26    17    26 1   
    27    18    19 ar  
    28    18    27 1   
    29    19    28 1   
@<TRIPOS>SUBSTRUCTURE
     1 6QV         1 TEMP              0 ****  ****    0 ROOT
