@<TRIPOS>MOLECULE
molecule
   28    29     1     0     0
SMALL
bcc


@<TRIPOS>ATOM
      1 CAH          0.0000     0.0000     0.0000 ca         1 6QV      -0.151000
      2 CAJ          1.3820     0.0000     0.0000 ca         1 6QV      -0.063000
      3 CAP          2.0750     0.0000     1.1950 ca         1 6QV      -0.195200
      4 NAR          3.5550    -0.0000     1.1920 no         1 6QV       0.302200
      5 OAC          4.1670    -0.0000     2.2450 o          1 6QV      -0.236000
      6 OAA          4.1610     0.0000     0.1350 o          1 6QV      -0.236000
      7 CAK          1.3880     0.0000     2.3960 ca         1 6QV      -0.063000
      8 CAI          0.0060     0.0000     2.4020 ca         1 6QV      -0.151000
      9 CAO         -0.6910     0.0000     1.2030 ca         1 6QV       0.240100
     10 OAN         -2.0500     0.0050     1.2070 os         1 6QV      -0.472500
     11 PAS         -2.7110    -1.4640     1.2050 p5         1 6QV       1.180900
     12 OAD         -2.1870    -2.2390     0.0590 o          1 6QV      -0.788500
     13 OAB         -2.3430    -2.2190     2.5780 o          1 6QV      -0.788500
     14 CAQ         -4.5140    -1.3160     1.0610 ca         1 6QV      -0.230500
     15 CAL         -5.3080    -2.4430     1.1420 ca         1 6QV      -0.066000
     16 CAF         -6.6810    -2.3310     1.0320 ca         1 6QV      -0.158500
     17 CAE         -7.2600    -1.0910     0.8410 ca         1 6QV      -0.129000
     18 CAG         -6.4660     0.0380     0.7590 ca         1 6QV      -0.158500
     19 CAM         -5.0920    -0.0740     0.8760 ca         1 6QV      -0.066000
     20 H1          -0.5430     0.0000    -0.9380 ha         1 6QV       0.165500
     21 H2           1.9220    -0.0000    -0.9390 ha         1 6QV       0.151500
     22 H3           1.9330     0.0000     3.3320 ha         1 6QV       0.151500
     23 H4          -0.5320     0.0000     3.3420 ha         1 6QV       0.165500
     24 H6          -4.8550    -3.4160     1.2920 ha         1 6QV       0.135500
     25 H7          -7.3040    -3.2150     1.0960 ha         1 6QV       0.109500
     26 H8          -8.3360    -1.0030     0.7520 ha         1 6QV       0.105000
     27 H9          -6.9190     1.0110     0.6120 ha         1 6QV       0.109500
     28 H10         -4.4690     0.8100     0.8120 ha         1 6QV       0.135500
@<TRIPOS>BOND
     1    18    17 ar  
     2    18    19 ar  
     3     5     4 1   
     4    17    16 ar  
     5    19    14 ar  
     6     4     6 1   
     7     4     3 1   
     8     2     3 ar  
     9     2     1 ar  
    10     3     7 ar  
    11    16    15 ar  
    12    14    15 ar  
    13    14    11 1   
    14    12    11 1   
    15     1     9 ar  
    16     7     8 ar  
    17    11    10 1   
    18    11    13 1   
    19     9     8 ar  
    20     9    10 1   
    21     1    20 1   
    22     2    21 1   
    23     7    22 1   
    24     8    23 1   
    25    15    24 1   
    26    16    25 1   
    27    17    26 1   
    28    18    27 1   
    29    19    28 1   
@<TRIPOS>SUBSTRUCTURE
     1 6QV         1 TEMP              0 ****  ****    0 ROOT
