@<TRIPOS>MOLECULE
molecule
   64    66     1     0     0
SMALL
bcc


@<TRIPOS>ATOM
      1 C10          0.0000     0.0000     0.0000 ca         1 6QW      -0.103000
      2 C11          1.3830     0.0000     0.0000 ca         1 6QW      -0.105300
      3 C13          1.3980     0.0020     2.3950 ca         1 6QW      -0.114000
      4 C18         -4.3880    -1.1200     7.3300 c3         1 6QW      -0.228300
      5 O22          0.0980     1.4470    -2.5820 o          1 6QW      -0.625300
      6 O21          1.4720     3.5030    -2.5010 o          1 6QW      -0.625300
      7 C19          3.5430     2.1070    -1.2240 c3         1 6QW       0.244800
      8 C24          1.1310     2.3600    -5.4840 ca         1 6QW      -0.091300
      9 C26          0.5970     4.2130    -6.9030 ca         1 6QW      -0.124000
     10 C30          3.2020     2.7380     0.1270 c3         1 6QW      -0.106700
     11 C27         -0.4650     3.5030    -7.4320 ca         1 6QW      -0.118000
     12 C28         -0.7300     2.2210    -6.9850 ca         1 6QW      -0.124000
     13 C29          0.0680     1.6500    -6.0120 ca         1 6QW      -0.109500
     14 C01         -2.1130     0.0100     6.0890 ca         1 6QW      -0.301500
     15 C02         -1.1050    -0.9130     5.8740 ca         1 6QW      -0.031500
     16 C03         -0.4150    -0.9180     4.6780 ca         1 6QW      -0.141500
     17 C04         -0.7350     0.0080     3.6880 cp         1 6QW       0.022000
     18 C05         -1.7500     0.9360     3.9100 ca         1 6QW      -0.141500
     19 C06         -2.4340     0.9320     5.1090 ca         1 6QW      -0.031500
     20 C08          0.0050     0.0070     2.4010 cp         1 6QW      -0.053000
     21 C09         -0.6930     0.0070     1.1940 ca         1 6QW      -0.067300
     22 C12          2.0800     0.0000     1.1940 ca         1 6QW      -0.122000
     23 C14         -2.2000     0.0140     1.1930 c3         1 6QW      -0.049800
     24 N15          2.3770     1.3790    -1.7310 n3         1 6QW      -0.813500
     25 O16         -3.4550     1.3440     7.7550 o          1 6QW      -0.619300
     26 O17         -2.0810    -0.5550     8.5460 o          1 6QW      -0.619300
     27 S20          1.3340     2.1170    -2.7850 s6         1 6QW       1.327900
     28 C23          2.0040     1.7340    -4.4270 c3         1 6QW      -0.171300
     29 C25          1.3940     3.6410    -5.9300 ca         1 6QW      -0.109500
     30 C31          4.4540     3.3920     0.7150 c3         1 6QW      -0.083600
     31 C32          2.1160     3.7980    -0.0640 c3         1 6QW      -0.083600
     32 C33          2.1340    -0.0020    -1.3070 c3         1 6QW       0.289100
     33 H1          -0.5410     0.0000    -0.9390 ha         1 6QW       0.166000
     34 H2           1.9450     0.0020     3.3300 ha         1 6QW       0.137000
     35 H3          -5.1340    -0.6250     6.7190 h1         1 6QW       0.098033
     36 H4          -4.0280    -2.0030     6.8150 h1         1 6QW       0.098033
     37 H5          -4.8290    -1.4080     8.2760 h1         1 6QW       0.098033
     38 H6           4.3730     1.4210    -1.1030 h1         1 6QW       0.047700
     39 H7           3.8170     2.8850    -1.9270 h1         1 6QW       0.047700
     40 H8           0.8050     5.2170    -7.2520 ha         1 6QW       0.134500
     41 H9           2.8440     1.9710     0.8040 hc         1 6QW       0.065700
     42 H10         -1.0900     3.9510    -8.1950 ha         1 6QW       0.133000
     43 H11         -1.5620     1.6650    -7.3990 ha         1 6QW       0.134500
     44 H12         -0.1390     0.6460    -5.6620 ha         1 6QW       0.137000
     45 H13         -0.8570    -1.6330     6.6440 ha         1 6QW       0.151000
     46 H14          0.3740    -1.6420     4.5100 ha         1 6QW       0.144000
     47 H15         -2.0020     1.6580     3.1440 ha         1 6QW       0.144000
     48 H16         -3.2230     1.6530     5.2830 ha         1 6QW       0.151000
     49 H17          3.1630    -0.0020     1.1880 ha         1 6QW       0.131000
     50 H18         -2.5640    -0.6220     1.9900 hc         1 6QW       0.047033
     51 H19         -2.5560     1.0250     1.3450 hc         1 6QW       0.047033
     52 H20         -2.5620    -0.3570     0.2410 hc         1 6QW       0.047033
     53 H21          2.0260     0.6600    -4.5660 h1         1 6QW       0.100700
     54 H22          3.0090     2.1300    -4.5080 h1         1 6QW       0.100700
     55 H23          2.2260     4.1980    -5.5160 ha         1 6QW       0.137000
     56 H24          4.7020     4.2770     0.1420 hc         1 6QW       0.037867
     57 H25          5.2800     2.6920     0.6760 hc         1 6QW       0.037867
     58 H26          4.2660     3.6710     1.7450 hc         1 6QW       0.037867
     59 H27          1.1880     3.3170    -0.3520 hc         1 6QW       0.037867
     60 H28          1.9700     4.3370     0.8640 hc         1 6QW       0.037867
     61 H29          2.4190     4.4900    -0.8410 hc         1 6QW       0.037867
     62 H30          3.0800    -0.5130    -1.1790 h1         1 6QW       0.055200
     63 H31          1.5460    -0.5130    -2.0600 h1         1 6QW       0.055200
     64 S07         -2.9950     0.0070     7.6140 sy         1 6QW       1.192300
@<TRIPOS>BOND
     1    25    64 2   
     2    31    10 1   
     3    15    16 ar  
     4    15    14 ar  
     5    64     4 1   
     6    64    14 1   
     7    64    26 2   
     8    16    17 ar  
     9    10    30 1   
    10    10     7 1   
    11    14    19 ar  
    12     7    24 1   
    13    17    20 1   
    14    17    18 ar  
    15     3    20 ar  
    16     3    22 ar  
    17    20    21 ar  
    18    19    18 ar  
    19    22     2 ar  
    20    24    32 1   
    21    24    27 1   
    22    21    23 1   
    23    21     1 ar  
    24     2     1 ar  
    25     2    32 1   
    26     5    27 2   
    27    28    27 1   
    28    28     8 1   
    29    27     6 2   
    30    13     8 ar  
    31    13    12 ar  
    32     8    29 ar  
    33    12    11 ar  
    34    29     9 ar  
    35    11     9 ar  
    36     1    33 1   
    37     3    34 1   
    38     4    35 1   
    39     4    36 1   
    40     4    37 1   
    41     7    38 1   
    42     7    39 1   
    43     9    40 1   
    44    10    41 1   
    45    11    42 1   
    46    12    43 1   
    47    13    44 1   
    48    15    45 1   
    49    16    46 1   
    50    18    47 1   
    51    19    48 1   
    52    22    49 1   
    53    23    50 1   
    54    23    51 1   
    55    23    52 1   
    56    28    53 1   
    57    28    54 1   
    58    29    55 1   
    59    30    56 1   
    60    30    57 1   
    61    30    58 1   
    62    31    59 1   
    63    31    60 1   
    64    31    61 1   
    65    32    62 1   
    66    32    63 1   
@<TRIPOS>SUBSTRUCTURE
     1 6QW         1 TEMP              0 ****  ****    0 ROOT
