@<TRIPOS>MOLECULE
6QW
   64    66     1     0     0
SMALL
bcc


@<TRIPOS>ATOM
      1 C10          0.0000     0.0000     0.0000 ca         1 6QW      -0.077000
      2 C11          1.3830     0.0000     0.0000 ca         1 6QW      -0.118300
      3 C13          1.3980     0.0020     2.3950 ca         1 6QW      -0.089000
      4 C18         -4.3880    -1.1200     7.3300 c3         1 6QW       0.026700
      5 O22          0.0980     1.4470    -2.5820 o          1 6QW      -0.581300
      6 O21          1.4720     3.5030    -2.5010 o          1 6QW      -0.581300
      7 C19          3.5430     2.1070    -1.2240 c3         1 6QW       0.247800
      8 C24          1.1310     2.3600    -5.4840 ca         1 6QW      -0.089300
      9 C26          0.5970     4.2130    -6.9030 ca         1 6QW      -0.095000
     10 C30          3.2020     2.7380     0.1270 c3         1 6QW      -0.106700
     11 C27         -0.4650     3.5030    -7.4320 ca         1 6QW      -0.094000
     12 C28         -0.7300     2.2210    -6.9850 ca         1 6QW      -0.095000
     13 C29          0.0680     1.6500    -6.0120 ca         1 6QW      -0.085000
     14 C01         -2.1130     0.0100     6.0890 ca         1 6QW      -0.163500
     15 C02         -1.1050    -0.9130     5.8740 ca         1 6QW       0.002500
     16 C03         -0.4150    -0.9180     4.6780 ca         1 6QW      -0.130500
     17 C04         -0.7350     0.0080     3.6880 cp         1 6QW       0.028000
     18 C05         -1.7500     0.9360     3.9100 ca         1 6QW      -0.130500
     19 C06         -2.4340     0.9320     5.1090 ca         1 6QW       0.002500
     20 C08          0.0050     0.0070     2.4010 cp         1 6QW      -0.051000
     21 C09         -0.6930     0.0070     1.1940 ca         1 6QW      -0.073300
     22 C12          2.0800     0.0000     1.1940 ca         1 6QW      -0.100000
     23 C14         -2.2000     0.0140     1.1930 c3         1 6QW       0.053200
     24 N15          2.3770     1.3790    -1.7310 n3         1 6QW      -0.538500
     25 O16         -3.4550     1.3440     7.7550 o          1 6QW      -0.589300
     26 O17         -2.0810    -0.5550     8.5460 o          1 6QW      -0.589300
     27 S20          1.3340     2.1170    -2.7850 s6         1 6QW       0.960900
     28 C23          2.0040     1.7340    -4.4270 c3         1 6QW       0.057700
     29 C25          1.3940     3.6410    -5.9300 ca         1 6QW      -0.085000
     30 C31          4.4540     3.3920     0.7150 c3         1 6QW       0.001400
     31 C32          2.1160     3.7980    -0.0640 c3         1 6QW       0.001400
     32 C33          2.1340    -0.0020    -1.3070 c3         1 6QW       0.304100
     33 H1          -0.5410     0.0000    -0.9390 ha         1 6QW       0.146000
     34 H2           1.9450     0.0020     3.3300 ha         1 6QW       0.110000
     35 H3          -5.1340    -0.6250     6.7190 h1         1 6QW       0.059367
     36 H4          -4.0280    -2.0030     6.8150 h1         1 6QW       0.059367
     37 H5          -4.8290    -1.4080     8.2760 h1         1 6QW       0.059367
     38 H6           4.3730     1.4210    -1.1030 h1         1 6QW       0.014700
     39 H7           3.8170     2.8850    -1.9270 h1         1 6QW       0.014700
     40 H8           0.8050     5.2170    -7.2520 ha         1 6QW       0.105000
     41 H9           2.8440     1.9710     0.8040 hc         1 6QW       0.049700
     42 H10         -1.0900     3.9510    -8.1950 ha         1 6QW       0.103000
     43 H11         -1.5620     1.6650    -7.3990 ha         1 6QW       0.105000
     44 H12         -0.1390     0.6460    -5.6620 ha         1 6QW       0.111500
     45 H13         -0.8570    -1.6330     6.6440 ha         1 6QW       0.122500
     46 H14          0.3740    -1.6420     4.5100 ha         1 6QW       0.119000
     47 H15         -2.0020     1.6580     3.1440 ha         1 6QW       0.119000
     48 H16         -3.2230     1.6530     5.2830 ha         1 6QW       0.122500
     49 H17          3.1630    -0.0020     1.1880 ha         1 6QW       0.108000
     50 H18         -2.5640    -0.6220     1.9900 hc         1 6QW       0.012367
     51 H19         -2.5560     1.0250     1.3450 hc         1 6QW       0.012367
     52 H20         -2.5620    -0.3570     0.2410 hc         1 6QW       0.012367
     53 H21          2.0260     0.6600    -4.5660 h1         1 6QW       0.067700
     54 H22          3.0090     2.1300    -4.5080 h1         1 6QW       0.067700
     55 H23          2.2260     4.1980    -5.5160 ha         1 6QW       0.111500
     56 H24          4.7020     4.2770     0.1420 hc         1 6QW       0.009033
     57 H25          5.2800     2.6920     0.6760 hc         1 6QW       0.009033
     58 H26          4.2660     3.6710     1.7450 hc         1 6QW       0.009033
     59 H27          1.1880     3.3170    -0.3520 hc         1 6QW       0.009033
     60 H28          1.9700     4.3370     0.8640 hc         1 6QW       0.009033
     61 H29          2.4190     4.4900    -0.8410 hc         1 6QW       0.009033
     62 H30          3.0800    -0.5130    -1.1790 h1         1 6QW       0.017700
     63 H31          1.5460    -0.5130    -2.0600 h1         1 6QW       0.017700
     64 S07         -2.9950     0.0070     7.6140 sy         1 6QW       0.874300
@<TRIPOS>BOND
     1     1     2 ar  
     2     1    21 ar  
     3     1    33 1   
     4     2    22 ar  
     5     2    32 1   
     6     3    20 ar  
     7     3    22 ar  
     8     3    34 1   
     9     4    35 1   
    10     4    36 1   
    11     4    37 1   
    12     4    64 1   
    13     5    27 2   
    14     6    27 2   
    15     7    10 1   
    16     7    24 1   
    17     7    38 1   
    18     7    39 1   
    19     8    13 ar  
    20     8    28 1   
    21     8    29 ar  
    22     9    11 ar  
    23     9    29 ar  
    24     9    40 1   
    25    10    30 1   
    26    10    31 1   
    27    10    41 1   
    28    11    12 ar  
    29    11    42 1   
    30    12    13 ar  
    31    12    43 1   
    32    13    44 1   
    33    14    15 ar  
    34    14    19 ar  
    35    14    64 1   
    36    15    16 ar  
    37    15    45 1   
    38    16    17 ar  
    39    16    46 1   
    40    17    18 ar  
    41    17    20 1   
    42    18    19 ar  
    43    18    47 1   
    44    19    48 1   
    45    20    21 ar  
    46    21    23 1   
    47    22    49 1   
    48    23    50 1   
    49    23    51 1   
    50    23    52 1   
    51    24    27 1   
    52    24    32 1   
    53    25    64 2   
    54    26    64 2   
    55    27    28 1   
    56    28    53 1   
    57    28    54 1   
    58    29    55 1   
    59    30    56 1   
    60    30    57 1   
    61    30    58 1   
    62    31    59 1   
    63    31    60 1   
    64    31    61 1   
    65    32    62 1   
    66    32    63 1   
@<TRIPOS>SUBSTRUCTURE
     1 6QW         1 TEMP              0 ****  ****    0 ROOT
