@<TRIPOS>MOLECULE
molecule
   46    49     1     0     0
SMALL
bcc


@<TRIPOS>ATOM
      1 C1           0.0000     0.0000     0.0000 c3         1 6QX       0.150600
      2 C3           1.9960     1.1370    -0.7660 c3         1 6QX       0.150600
      3 C7           2.0520    -1.2490     3.5350 c3         1 6QX      -0.095400
      4 C8           3.5810    -1.2490     3.4950 c3         1 6QX       0.240500
      5 C10          4.0730     0.0000     2.7590 c3         1 6QX      -0.095400
      6 C11          3.5240    -0.0000     1.3310 c3         1 6QX      -0.073900
      7 C13          5.3670    -1.7550     5.1190 ca         1 6QX       0.767200
      8 C14          5.8910    -1.7570     6.4380 ca         1 6QX      -0.366400
      9 C15          5.2820    -1.2770     7.6810 cc         1 6QX      -0.085400
     10 C16          6.0520    -1.4290     8.7500 cd         1 6QX      -0.079600
     11 C20          7.3170    -2.7300     4.3720 ca         1 6QX       0.731900
     12 C22          5.3450    -0.9070     9.9970 c3         1 6QX       0.001800
     13 C24          3.9540    -0.6310     8.0760 c3         1 6QX      -0.022200
     14 N19          7.8420    -2.7550     5.5750 nb         1 6QX      -0.759000
     15 N2           1.4690     0.0000     0.0000 n3         1 6QX      -0.729600
     16 C18          7.1650    -2.2780     6.6310 ca         1 6QX       0.543600
     17 N12          4.1060    -1.2490     4.8630 nu         1 6QX      -0.896900
     18 C6           1.5040    -1.2490     2.1060 c3         1 6QX      -0.073900
     19 S17          7.5940    -2.1720     8.3280 ss         1 6QX      -0.113900
     20 C4           1.9950     0.0000     1.3720 c3         1 6QX       0.169500
     21 C23          3.8580    -0.8230     9.6020 c3         1 6QX      -0.079400
     22 N21          6.1120    -2.2440     4.1380 nb         1 6QX      -0.828000
     23 H1          -0.3610    -0.9990     0.2130 h1         1 6QX       0.031867
     24 H2          -0.3610     0.3150    -0.9710 h1         1 6QX       0.031867
     25 H3          -0.3610     0.6840     0.7590 h1         1 6QX       0.031867
     26 H4           1.9930     2.0240    -0.1440 h1         1 6QX       0.031867
     27 H5           1.3740     1.3050    -1.6370 h1         1 6QX       0.031867
     28 H6           3.0090     0.9210    -1.0820 h1         1 6QX       0.031867
     29 H7           1.7060    -0.3620     4.0530 hc         1 6QX       0.048200
     30 H8           1.7050    -2.1350     4.0530 hc         1 6QX       0.048200
     31 H9           3.9260    -2.1330     2.9710 h1         1 6QX       0.085700
     32 H10          3.7230     0.8840     3.2780 hc         1 6QX       0.048200
     33 H11          5.1560    -0.0030     2.7290 hc         1 6QX       0.048200
     34 H12          3.8710     0.8850     0.8130 hc         1 6QX       0.053700
     35 H13          3.8700    -0.8870     0.8140 hc         1 6QX       0.053700
     36 H14          7.8940    -3.1200     3.5420 h5         1 6QX       0.060100
     37 H15          5.7210     0.0750    10.2580 hc         1 6QX       0.055700
     38 H16          5.4770    -1.5990    10.8200 hc         1 6QX       0.055700
     39 H17          3.1310    -1.1320     7.5820 hc         1 6QX       0.049700
     40 H18          3.9620     0.4250     7.8310 hc         1 6QX       0.049700
     41 H20          3.5400    -0.9120     5.6160 hn         1 6QX       0.450800
     42 H21          0.4210    -1.2460     2.1360 hc         1 6QX       0.053700
     43 H22          1.8540    -2.1320     1.5870 hc         1 6QX       0.053700
     44 H23          1.6500     0.8830     1.8950 h1         1 6QX       0.023700
     45 H24          3.3820     0.0310    10.0690 hc         1 6QX       0.055200
     46 H25          3.3420    -1.7440     9.8430 hc         1 6QX       0.055200
@<TRIPOS>BOND
     1    12    21 1   
     2    12    10 1   
     3    21    13 1   
     4    10    19 1   
     5    10     9 2   
     6    13     9 1   
     7    19    16 1   
     8     9     8 1   
     9    16     8 ar  
    10    16    14 ar  
    11     8     7 ar  
    12    14    11 ar  
    13     7    17 1   
    14     7    22 ar  
    15    17     4 1   
    16    11    22 ar  
    17     5     4 1   
    18     5     6 1   
    19     4     3 1   
    20     6    20 1   
    21     3    18 1   
    22    20    18 1   
    23    20    15 1   
    24     1    15 1   
    25    15     2 1   
    26     1    23 1   
    27     1    24 1   
    28     1    25 1   
    29     2    26 1   
    30     2    27 1   
    31     2    28 1   
    32     3    29 1   
    33     3    30 1   
    34     4    31 1   
    35     5    32 1   
    36     5    33 1   
    37     6    34 1   
    38     6    35 1   
    39    11    36 1   
    40    12    37 1   
    41    12    38 1   
    42    13    39 1   
    43    13    40 1   
    44    17    41 1   
    45    18    42 1   
    46    18    43 1   
    47    20    44 1   
    48    21    45 1   
    49    21    46 1   
@<TRIPOS>SUBSTRUCTURE
     1 6QX         1 TEMP              0 ****  ****    0 ROOT
