@<TRIPOS>MOLECULE
molecule
   54    57     1     0     0
SMALL
bcc


@<TRIPOS>ATOM
      1 C1           0.0000     0.0000     0.0000 c3         1 6QY       0.170500
      2 C2           1.5290     0.0000     0.0000 c3         1 6QY      -0.073900
      3 C3           2.0390     0.0000     1.4430 c3         1 6QY      -0.094900
      4 C7           2.1490     2.4430     4.2320 ca         1 6QY       0.774200
      5 C8           2.0540     4.7480     4.2770 ca         1 6QY       0.740900
      6 C9           2.6280     3.6970     6.2420 ca         1 6QY       0.520800
      7 C10          2.5070     2.4570     5.5880 ca         1 6QY      -0.403400
      8 C11          2.8140     1.4360     6.5890 cc         1 6QY      -0.121400
      9 C12          3.0890     2.0850     7.7330 cd         1 6QY      -0.110100
     10 C13          2.8200    -0.0560     6.3770 c3         1 6QY       0.007500
     11 C14          4.1750    -0.6280     6.8040 c3         1 6QY      -0.112900
     12 C15          4.1450    -2.1520     6.6600 c3         1 6QY       0.135400
     13 C16          1.7810    -2.2180     7.0650 c3         1 6QY       0.135400
     14 C18         -0.0190    -1.1880    -2.1110 c3         1 6QY       0.150600
     15 N           -0.4900     0.0000    -1.3850 n3         1 6QY      -0.729600
     16 C           -1.9550     0.0950    -1.4260 c3         1 6QY       0.150600
     17 C6          -0.5110     1.2500     0.7210 c3         1 6QY      -0.073900
     18 C5          -0.0010     1.2500     2.1630 c3         1 6QY      -0.094900
     19 C4           1.5290     1.2500     2.1640 c3         1 6QY       0.240500
     20 N1           2.0170     1.2500     3.5450 nu         1 6QY      -0.904900
     21 N4           2.9810     3.4380     7.5380 na         1 6QY      -0.270100
     22 N3           2.3880     4.8090     5.5490 nb         1 6QY      -0.807000
     23 N2           1.9340     3.6070     3.6240 nb         1 6QY      -0.840000
     24 C17          1.7170    -0.6980     7.2250 c3         1 6QY      -0.112900
     25 O            3.0780    -2.6820     7.4500 os         1 6QY      -0.422600
     26 H1          -0.3590    -0.8830     0.5150 h1         1 6QY       0.023700
     27 H2           1.8890     0.8860    -0.5090 hc         1 6QY       0.053200
     28 H3           1.8890    -0.8860    -0.5090 hc         1 6QY       0.053200
     29 H4           3.1230     0.0030     1.4420 hc         1 6QY       0.047450
     30 H5           1.6750    -0.8840     1.9530 hc         1 6QY       0.047450
     31 H6           1.8710     5.6730     3.7440 h5         1 6QY       0.057100
     32 H7           3.3560     1.6100     8.6690 h4         1 6QY       0.173000
     33 H8           2.6470    -0.2790     5.3320 hc         1 6QY       0.043700
     34 H9           4.3680    -0.3660     7.8370 hc         1 6QY       0.055700
     35 H10          4.9540    -0.2210     6.1700 hc         1 6QY       0.055700
     36 H11          3.9870    -2.4130     5.6210 h1         1 6QY       0.046200
     37 H12          5.0850    -2.5650     7.0030 h1         1 6QY       0.046200
     38 H13          1.5980    -2.4790     6.0300 h1         1 6QY       0.046200
     39 H14          1.0320    -2.6790     7.6980 h1         1 6QY       0.046200
     40 H15         -0.0970    -2.0570    -1.4690 h1         1 6QY       0.031700
     41 H16         -0.6260    -1.3350    -2.9950 h1         1 6QY       0.031700
     42 H17          1.0150    -1.0460    -2.4020 h1         1 6QY       0.031700
     43 H19         -2.2560     1.1200    -1.2480 h1         1 6QY       0.031700
     44 H20         -2.3100    -0.2220    -2.4000 h1         1 6QY       0.031700
     45 H21         -2.3800    -0.5440    -0.6620 h1         1 6QY       0.031700
     46 H22         -0.1470     2.1340     0.2110 hc         1 6QY       0.053200
     47 H23         -1.5940     1.2470     0.7220 hc         1 6QY       0.053200
     48 H24         -0.3610     2.1360     2.6720 hc         1 6QY       0.047450
     49 H25         -0.3610     0.3640     2.6720 hc         1 6QY       0.047450
     50 H26          1.8880     2.1330     1.6490 h1         1 6QY       0.086700
     51 H27          2.2930     0.3910     3.9780 hn         1 6QY       0.450800
     52 H28          3.1380     4.1330     8.2410 hn         1 6QY       0.306700
     53 H29          0.7510    -0.3400     6.8910 hc         1 6QY       0.055700
     54 H30          1.8650    -0.4370     8.2660 hc         1 6QY       0.055700
@<TRIPOS>BOND
     1    14    15 1
     2    16    15 1
     3    15     1 1
     4     2     1 1
     5     2     3 1
     6     1    17 1
     7     3    19 1
     8    17    18 1
     9    18    19 1
    10    19    20 1
    11    23     5 ar
    12    23     4 ar
    13    20     4 1
    14     5    22 ar
    15     4     7 ar
    16    22     6 ar
    17     7     6 ar
    18     7     8 1
    19    24    13 1
    20    24    10 1
    21    13    25 1
    22     6    21 1
    23     8    10 1
    24     8     9 2
    25    10    11 1
    26    21     9 1
    27    25    12 1
    28    11    12 1
    29     1    26 1
    30     2    27 1
    31     2    28 1
    32     3    29 1
    33     3    30 1
    34     5    31 1
    35     9    32 1
    36    10    33 1
    37    11    34 1
    38    11    35 1
    39    12    36 1
    40    12    37 1
    41    13    38 1
    42    13    39 1
    43    14    40 1
    44    14    41 1
    45    14    42 1
    46    16    43 1
    47    16    44 1
    48    16    45 1
    49    17    46 1
    50    17    47 1
    51    18    48 1
    52    18    49 1
    53    19    50 1
    54    20    51 1
    55    21    52 1
    56    24    53 1
    57    24    54 1
@<TRIPOS>SUBSTRUCTURE
     1 6QY         1 TEMP              0 ****  ****    0 ROOT
