@<TRIPOS>MOLECULE
molecule
   69    74     1     0     0
SMALL
bcc


@<TRIPOS>ATOM
      1 C1           0.0000     0.0000     0.0000 c          1 6QZ       0.716500
      2 C2           1.5050     0.0000     0.0000 c3         1 6QZ      -0.154400
      3 C3           1.9200     0.0000     1.4730 c3         1 6QZ      -0.075700
      4 C7           2.5760    -1.2520     2.0470 c3         1 6QZ       0.187800
      5 C8           2.1610    -3.6640     2.4090 c3         1 6QZ       0.185500
      6 C9           2.5270    -4.2780     3.7710 c3         1 6QZ      -0.075900
      7 C10          3.0210    -5.7340     3.6430 c3         1 6QZ      -0.089400
      8 C11          2.0580    -6.5950     2.8260 c3         1 6QZ       0.236500
      9 C12          1.8520    -5.9930     1.4480 c3         1 6QZ      -0.089400
     10 C13          1.2800    -4.5760     1.5500 c3         1 6QZ      -0.075900
     11 C14          2.1560    -8.9430     3.6230 ca         1 6QZ       0.757200
     12 C15          1.1920    -9.4630     5.6410 ca         1 6QZ       0.698900
     13 C16          2.2560   -11.1440     4.5870 ca         1 6QZ       0.477800
     14 C19          3.4090   -12.4240     3.1890 cc         1 6QZ      -0.126100
     15 C20          4.0110   -10.7980     1.2910 c3         1 6QZ       0.005500
     16 C21          2.9990   -10.3620     0.2210 c3         1 6QZ      -0.113400
     17 C22          3.6990   -10.1490    -1.0990 c3         1 6QZ       0.130400
     18 C24          4.8390   -11.9940     0.7750 c3         1 6QZ      -0.113400
     19 O           -0.7250    -0.1530    -0.9720 o          1 6QZ      -0.639500
     20 N1           1.5960    -2.2990     2.3640 n3         1 6QZ      -0.742600
     21 C6           0.8080    -1.8920     3.5440 c3         1 6QZ       0.180800
     22 C5           0.4590    -0.3990     3.5470 c3         1 6QZ      -0.087400
     23 C4           0.6600     0.3990     2.2580 c3         1 6QZ       0.131700
     24 N           -0.4220     0.2100     1.2560 n          1 6QZ      -0.489800
     25 C           -1.8370     0.3000     1.6160 c3         1 6QZ       0.102300
     26 N2           2.5070    -7.9880     2.7350 nu         1 6QZ      -0.873900
     27 C17          2.6030   -10.3280     3.4920 ca         1 6QZ      -0.381400
     28 C18          3.3480   -11.2000     2.5850 cd         1 6QZ      -0.109400
     29 N5           2.7410   -12.4020     4.3800 na         1 6QZ      -0.263100
     30 N4           1.5590   -10.7490     5.6630 nb         1 6QZ      -0.770000
     31 N3           1.4370    -8.5430     4.7020 nb         1 6QZ      -0.814000
     32 C23          5.4050   -11.6890    -0.5920 c3         1 6QZ       0.130400
     33 O1           4.3700   -11.3360    -1.5180 os         1 6QZ      -0.407600
     34 H1           1.8780     0.8900    -0.4920 hc         1 6QZ       0.076700
     35 H2           1.8780    -0.8900    -0.4920 hc         1 6QZ       0.076700
     36 H3           2.6350     0.8050     1.5950 hc         1 6QZ       0.047700
     37 H4           3.2810    -1.6400     1.3220 h1         1 6QZ       0.035200
     38 H5           3.1070    -0.9840     2.9530 h1         1 6QZ       0.035200
     39 H6           3.1020    -3.5990     1.8770 h1         1 6QZ       0.034700
     40 H7           1.6520    -4.2600     4.4090 hc         1 6QZ       0.051450
     41 H8           3.3110    -3.6820     4.2230 hc         1 6QZ       0.051450
     42 H9           3.1170    -6.1600     4.6350 hc         1 6QZ       0.048200
     43 H10          3.9900    -5.7350     3.1590 hc         1 6QZ       0.048200
     44 H11          1.1010    -6.5870     3.3340 h1         1 6QZ       0.085700
     45 H12          2.8030    -5.9550     0.9310 hc         1 6QZ       0.048200
     46 H13          1.1620    -6.6140     0.8890 hc         1 6QZ       0.048200
     47 H14          1.2040    -4.1550     0.5550 hc         1 6QZ       0.051450
     48 H15          0.2920    -4.6280     1.9930 hc         1 6QZ       0.051450
     49 H16          0.6170    -9.1230     6.4930 h5         1 6QZ       0.042100
     50 H17          3.9160   -13.2900     2.7800 h4         1 6QZ       0.171000
     51 H18          4.6830    -9.9710     1.4840 hc         1 6QZ       0.048700
     52 H19          2.2470   -11.1330     0.1050 hc         1 6QZ       0.054700
     53 H20          2.5280    -9.4370     0.5290 hc         1 6QZ       0.054700
     54 H21          2.9670    -9.8720    -1.8470 h1         1 6QZ       0.044950
     55 H22          4.4240    -9.3510    -0.9900 h1         1 6QZ       0.044950
     56 H23          5.6530   -12.1870     1.4630 hc         1 6QZ       0.054700
     57 H24          4.2020   -12.8670     0.7110 hc         1 6QZ       0.054700
     58 H26         -0.1120    -2.4640     3.5610 h1         1 6QZ       0.036700
     59 H27          1.3800    -2.1160     4.4360 h1         1 6QZ       0.036700
     60 H28          1.0550     0.0740     4.3180 hc         1 6QZ       0.048200
     61 H29         -0.5840    -0.3090     3.8270 hc         1 6QZ       0.048200
     62 H30          0.7230     1.4510     2.5080 h1         1 6QZ       0.048700
     63 H31         -2.2170    -0.6900     1.8360 h1         1 6QZ       0.041700
     64 H32         -1.9490     0.9320     2.4890 h1         1 6QZ       0.041700
     65 H33         -2.3940     0.7240     0.7890 h1         1 6QZ       0.041700
     66 H34          3.1050    -8.2440     1.9740 hn         1 6QZ       0.439800
     67 H35          2.6430   -13.1750     5.0080 hn         1 6QZ       0.312700
     68 H36          5.9250   -12.5650    -0.9620 h1         1 6QZ       0.044950
     69 H37          6.1020   -10.8640    -0.5100 h1         1 6QZ       0.044950
@<TRIPOS>BOND
     1     2     1 1
     2     2     3 1
     3    19     1 2
     4     1    24 1
     5     3     4 1
     6     3    23 1
     7    24    23 1
     8    24    25 1
     9     4    20 1
    10    23    22 1
    11    20     5 1
    12    20    21 1
    13    33    17 1
    14    33    32 1
    15    17    16 1
    16     5    10 1
    17     5     6 1
    18    32    18 1
    19    22    21 1
    20    10     9 1
    21     9     8 1
    22    16    15 1
    23     6     7 1
    24    18    15 1
    25     7     8 1
    26    15    28 1
    27     8    26 1
    28    26    11 1
    29    28    27 1
    30    28    14 2
    31    11    27 ar
    32    11    31 ar
    33    27    13 ar
    34    14    29 1
    35    31    12 ar
    36    13    29 1
    37    13    30 ar
    38    12    30 ar
    39     2    34 1
    40     2    35 1
    41     3    36 1
    42     4    37 1
    43     4    38 1
    44     5    39 1
    45     6    40 1
    46     6    41 1
    47     7    42 1
    48     7    43 1
    49     8    44 1
    50     9    45 1
    51     9    46 1
    52    10    47 1
    53    10    48 1
    54    12    49 1
    55    14    50 1
    56    15    51 1
    57    16    52 1
    58    16    53 1
    59    17    54 1
    60    17    55 1
    61    18    56 1
    62    18    57 1
    63    21    58 1
    64    21    59 1
    65    22    60 1
    66    22    61 1
    67    23    62 1
    68    25    63 1
    69    25    64 1
    70    25    65 1
    71    26    66 1
    72    29    67 1
    73    32    68 1
    74    32    69 1
@<TRIPOS>SUBSTRUCTURE
     1 6QZ         1 TEMP              0 ****  ****    0 ROOT
