@<TRIPOS>MOLECULE
molecule
   69    74     1     0     0
SMALL
bcc


@<TRIPOS>ATOM
      1 C1           0.0000     0.0000     0.0000 c          1 6R0       0.702500
      2 C2           1.5150     0.0000     0.0000 c3         1 6R0      -0.162400
      3 C3           1.8720     0.0000     1.5020 c3         1 6R0      -0.076700
      4 C7           3.1920     0.6730     1.7610 c3         1 6R0       0.168800
      5 C8           4.4270     2.7450     1.9090 c3         1 6R0       0.168500
      6 C9           4.9070     2.4250     3.3260 c3         1 6R0      -0.095900
      7 C10          6.2800     3.0630     3.5550 c3         1 6R0      -0.094400
      8 C11          6.1710     4.5800     3.3820 c3         1 6R0       0.242500
      9 C12          5.6910     4.8990     1.9660 c3         1 6R0      -0.094400
     10 C13          4.3200     4.2610     1.7370 c3         1 6R0      -0.095900
     11 C14          7.5750     6.5090     4.0110 ca         1 6R0       0.774200
     12 C15          6.5700     8.5290     4.4950 ca         1 6R0       0.740900
     13 C16          8.8550     8.4250     4.7430 ca         1 6R0       0.520800
     14 C19         10.9570     7.6390     4.7580 cc         1 6R0      -0.109100
     15 C20         10.6810     5.2240     3.9960 c3         1 6R0       0.007500
     16 C21         11.2540     4.5420     5.2430 c3         1 6R0      -0.112900
     17 C22         11.8120     3.1710     4.8530 c3         1 6R0       0.135400
     18 C24         11.7770     5.3250     2.9320 c3         1 6R0      -0.112900
     19 O           -0.6960    -0.2790    -0.9530 o          1 6R0      -0.631500
     20 N1           3.1100     2.1330     1.6880 n3         1 6R0      -0.715600
     21 C6           2.1280     2.6290     2.6640 c3         1 6R0       0.153800
     22 C5           0.7410     2.1690     2.2330 c3         1 6R0      -0.092400
     23 C4           0.6570     0.6780     2.1250 c3         1 6R0       0.120700
     24 N           -0.4610     0.3510     1.2160 n          1 6R0      -0.506800
     25 C           -1.8780     0.4090     1.5840 c3         1 6R0       0.118300
     26 N2           7.4850     5.1910     3.6030 nu         1 6R0      -0.905900
     27 C17          8.8170     7.0790     4.3320 ca         1 6R0      -0.402400
     28 C18         10.1980     6.6070     4.3550 cd         1 6R0      -0.121400
     29 N5          10.1630     8.7320     4.9970 na         1 6R0      -0.268100
     30 N4           7.7100     9.1020     4.8110 nb         1 6R0      -0.805000
     31 N3           6.4880     7.2680     4.1060 nb         1 6R0      -0.842000
     32 C23         12.3160     3.9230     2.6310 c3         1 6R0       0.135400
     33 O1          12.8060     3.3330     3.8390 os         1 6R0      -0.421600
     34 H1           1.8950    -0.8930    -0.4810 hc         1 6R0       0.082700
     35 H2           1.8950     0.8930    -0.4810 hc         1 6R0       0.082700
     36 H3           1.9240    -1.0240     1.8530 hc         1 6R0       0.061700
     37 H4           3.5360     0.3940     2.7500 h1         1 6R0       0.038200
     38 H5           3.9080     0.3280     1.0260 h1         1 6R0       0.038200
     39 H6           5.1380     2.3510     1.1920 h1         1 6R0       0.065700
     40 H7           4.9850     1.3510     3.4460 hc         1 6R0       0.052200
     41 H8           4.2010     2.8240     4.0440 hc         1 6R0       0.052200
     42 H9           6.9850     2.6690     2.8340 hc         1 6R0       0.050200
     43 H10          6.6180     2.8390     4.5600 hc         1 6R0       0.050200
     44 H11          5.4600     4.9730     4.0990 h1         1 6R0       0.081700
     45 H12          5.6130     5.9730     1.8460 hc         1 6R0       0.050200
     46 H13          6.3980     4.5010     1.2480 hc         1 6R0       0.050200
     47 H14          3.6140     4.6570     2.4580 hc         1 6R0       0.052200
     48 H15          3.9820     4.4860     0.7320 hc         1 6R0       0.052200
     49 H16          5.6590     9.1130     4.5590 h5         1 6R0       0.058100
     50 H17         12.0330     7.6130     4.8760 h4         1 6R0       0.174000
     51 H18          9.8570     4.6360     3.6110 hc         1 6R0       0.042700
     52 H19         12.0490     5.1520     5.6550 hc         1 6R0       0.055700
     53 H20         10.4690     4.4170     5.9780 hc         1 6R0       0.055700
     54 H21         11.0090     2.5500     4.4750 h1         1 6R0       0.046200
     55 H22         12.2580     2.7040     5.7230 h1         1 6R0       0.046200
     56 H23         11.3630     5.7540     2.0270 hc         1 6R0       0.055700
     57 H24         12.5820     5.9500     3.3000 hc         1 6R0       0.055700
     58 H26          2.1590     3.7110     2.6920 h1         1 6R0       0.041700
     59 H27          2.3560     2.2270     3.6440 h1         1 6R0       0.041700
     60 H28          0.5100     2.6050     1.2690 hc         1 6R0       0.058200
     61 H29          0.0160     2.5100     2.9630 hc         1 6R0       0.058200
     62 H30          0.4660     0.2530     3.1030 h1         1 6R0       0.050700
     63 H31         -1.9690     0.6910     2.6260 h1         1 6R0       0.041033
     64 H32         -2.3810     1.1430     0.9660 h1         1 6R0       0.041033
     65 H33         -2.3310    -0.5630     1.4310 h1         1 6R0       0.041033
     66 H34          8.3180     4.6650     3.4240 hn         1 6R0       0.450800
     67 H35         10.4930     9.6240     5.3070 hn         1 6R0       0.307700
     68 H36         13.1230     3.9940     1.9120 h1         1 6R0       0.046200
     69 H37         11.5200     3.3090     2.2290 h1         1 6R0       0.046200
@<TRIPOS>BOND
     1    33    32 1   
     2    33    17 1   
     3    32    18 1   
     4    17    16 1   
     5    18    15 1   
     6    16    15 1   
     7    14    28 2   
     8    14    29 1   
     9    15    28 1   
    10    28    27 1   
    11    29    13 1   
    12    27    13 ar  
    13    27    11 ar  
    14    13    30 ar  
    15    30    12 ar  
    16    11    26 1   
    17    11    31 ar  
    18    26     8 1   
    19    12    31 ar  
    20     7     8 1   
    21     7     6 1   
    22     8     9 1   
    23     6     5 1   
    24     9    10 1   
    25     5    10 1   
    26     5    20 1   
    27    20    21 1   
    28    20     4 1   
    29    25    24 1   
    30    21    22 1   
    31    19     1 2   
    32     4     3 1   
    33    24     1 1   
    34    24    23 1   
    35     1     2 1   
    36    22    23 1   
    37    23     3 1   
    38     3     2 1   
    39     2    34 1   
    40     2    35 1   
    41     3    36 1   
    42     4    37 1   
    43     4    38 1   
    44     5    39 1   
    45     6    40 1   
    46     6    41 1   
    47     7    42 1   
    48     7    43 1   
    49     8    44 1   
    50     9    45 1   
    51     9    46 1   
    52    10    47 1   
    53    10    48 1   
    54    12    49 1   
    55    14    50 1   
    56    15    51 1   
    57    16    52 1   
    58    16    53 1   
    59    17    54 1   
    60    17    55 1   
    61    18    56 1   
    62    18    57 1   
    63    21    58 1   
    64    21    59 1   
    65    22    60 1   
    66    22    61 1   
    67    23    62 1   
    68    25    63 1   
    69    25    64 1   
    70    25    65 1   
    71    26    66 1   
    72    29    67 1   
    73    32    68 1   
    74    32    69 1   
@<TRIPOS>SUBSTRUCTURE
     1 6R0         1 TEMP              0 ****  ****    0 ROOT
