@<TRIPOS>MOLECULE
6R0
   69    74     1     0     0
SMALL
bcc


@<TRIPOS>ATOM
      1 C1           0.0000     0.0000     0.0000 c          1 6R0       0.636500
      2 C2           1.5150     0.0000     0.0000 c3         1 6R0      -0.112400
      3 C3           1.8720     0.0000     1.5020 c3         1 6R0      -0.049700
      4 C7           3.1920     0.6730     1.7610 c3         1 6R0       0.156800
      5 C8           4.4270     2.7450     1.9090 c3         1 6R0       0.129500
      6 C9           4.9070     2.4250     3.3260 c3         1 6R0      -0.048400
      7 C10          6.2800     3.0630     3.5550 c3         1 6R0      -0.035900
      8 C11          6.1710     4.5800     3.3820 c3         1 6R0       0.131500
      9 C12          5.6910     4.8990     1.9660 c3         1 6R0      -0.035900
     10 C13          4.3200     4.2610     1.7370 c3         1 6R0      -0.048400
     11 C14          7.5750     6.5090     4.0110 ca         1 6R0       0.609200
     12 C15          6.5700     8.5290     4.4950 ca         1 6R0       0.690900
     13 C16          8.8550     8.4250     4.7430 ca         1 6R0       0.291800
     14 C19         10.9570     7.6390     4.7580 cc         1 6R0      -0.285100
     15 C20         10.6810     5.2240     3.9960 c3         1 6R0       0.042500
     16 C21         11.2540     4.5420     5.2430 c3         1 6R0      -0.067400
     17 C22         11.8120     3.1710     4.8530 c3         1 6R0       0.214400
     18 C24         11.7770     5.3250     2.9320 c3         1 6R0      -0.067400
     19 O           -0.6960    -0.2790    -0.9530 o          1 6R0      -0.669500
     20 N1           3.1100     2.1330     1.6880 n3         1 6R0      -0.527600
     21 C6           2.1280     2.6290     2.6640 c3         1 6R0       0.136800
     22 C5           0.7410     2.1690     2.2330 c3         1 6R0      -0.045400
     23 C4           0.6570     0.6780     2.1250 c3         1 6R0       0.044700
     24 N           -0.4610     0.3510     1.2160 n          1 6R0      -0.184800
     25 C           -1.8780     0.4090     1.5840 c3         1 6R0       0.117300
     26 N2           7.4850     5.1910     3.6030 nu         1 6R0      -0.505900
     27 C17          8.8170     7.0790     4.3320 ca         1 6R0      -0.405400
     28 C18         10.1980     6.6070     4.3550 cd         1 6R0      -0.108400
     29 N5          10.1630     8.7320     4.9970 na         1 6R0       0.281900
     30 N4           7.7100     9.1020     4.8110 nb         1 6R0      -0.689000
     31 N3           6.4880     7.2680     4.1060 nb         1 6R0      -0.752000
     32 C23         12.3160     3.9230     2.6310 c3         1 6R0       0.214400
     33 O1          12.8060     3.3330     3.8390 os         1 6R0      -0.408600
     34 H1           1.8950    -0.8930    -0.4810 hc         1 6R0       0.050700
     35 H2           1.8950     0.8930    -0.4810 hc         1 6R0       0.050700
     36 H3           1.9240    -1.0240     1.8530 hc         1 6R0       0.034700
     37 H4           3.5360     0.3940     2.7500 h1         1 6R0       0.015200
     38 H5           3.9080     0.3280     1.0260 h1         1 6R0       0.015200
     39 H6           5.1380     2.3510     1.1920 h1         1 6R0       0.039700
     40 H7           4.9850     1.3510     3.4460 hc         1 6R0       0.028450
     41 H8           4.2010     2.8240     4.0440 hc         1 6R0       0.028450
     42 H9           6.9850     2.6690     2.8340 hc         1 6R0       0.022450
     43 H10          6.6180     2.8390     4.5600 hc         1 6R0       0.022450
     44 H11          5.4600     4.9730     4.0990 h1         1 6R0       0.059700
     45 H12          5.6130     5.9730     1.8460 hc         1 6R0       0.022450
     46 H13          6.3980     4.5010     1.2480 hc         1 6R0       0.022450
     47 H14          3.6140     4.6570     2.4580 hc         1 6R0       0.028450
     48 H15          3.9820     4.4860     0.7320 hc         1 6R0       0.028450
     49 H16          5.6590     9.1130     4.5590 h5         1 6R0      -0.006900
     50 H17         12.0330     7.6130     4.8760 h4         1 6R0       0.150000
     51 H18          9.8570     4.6360     3.6110 hc         1 6R0       0.023700
     52 H19         12.0490     5.1520     5.6550 hc         1 6R0       0.027700
     53 H20         10.4690     4.4170     5.9780 hc         1 6R0       0.027700
     54 H21         11.0090     2.5500     4.4750 h1         1 6R0       0.006450
     55 H22         12.2580     2.7040     5.7230 h1         1 6R0       0.006450
     56 H23         11.3630     5.7540     2.0270 hc         1 6R0       0.027700
     57 H24         12.5820     5.9500     3.3000 hc         1 6R0       0.027700
     58 H26          2.1590     3.7110     2.6920 h1         1 6R0       0.021700
     59 H27          2.3560     2.2270     3.6440 h1         1 6R0       0.021700
     60 H28          0.5100     2.6050     1.2690 hc         1 6R0       0.029200
     61 H29          0.0160     2.5100     2.9630 hc         1 6R0       0.029200
     62 H30          0.4660     0.2530     3.1030 h1         1 6R0       0.024700
     63 H31         -1.9690     0.6910     2.6260 h1         1 6R0       0.007700
     64 H32         -2.3810     1.1430     0.9660 h1         1 6R0       0.007700
     65 H33         -2.3310    -0.5630     1.4310 h1         1 6R0       0.007700
     66 H34          8.3180     4.6650     3.4240 hn         1 6R0       0.308800
     67 H35         10.4930     9.6240     5.3070 hn         1 6R0       0.118700
     68 H36         13.1230     3.9940     1.9120 h1         1 6R0       0.006450
     69 H37         11.5200     3.3090     2.2290 h1         1 6R0       0.006450
@<TRIPOS>BOND
     1     1     2 1   
     2     1    19 2   
     3     1    24 1   
     4     2     3 1   
     5     2    34 1   
     6     2    35 1   
     7     3     4 1   
     8     3    23 1   
     9     3    36 1   
    10     4    20 1   
    11     4    37 1   
    12     4    38 1   
    13     5     6 1   
    14     5    10 1   
    15     5    20 1   
    16     5    39 1   
    17     6     7 1   
    18     6    40 1   
    19     6    41 1   
    20     7     8 1   
    21     7    42 1   
    22     7    43 1   
    23     8     9 1   
    24     8    26 1   
    25     8    44 1   
    26     9    10 1   
    27     9    45 1   
    28     9    46 1   
    29    10    47 1   
    30    10    48 1   
    31    11    26 1   
    32    11    27 ar  
    33    11    31 ar  
    34    12    30 ar  
    35    12    31 ar  
    36    12    49 1   
    37    13    27 ar  
    38    13    29 1   
    39    13    30 ar  
    40    14    28 2   
    41    14    29 1   
    42    14    50 1   
    43    15    16 1   
    44    15    18 1   
    45    15    28 1   
    46    15    51 1   
    47    16    17 1   
    48    16    52 1   
    49    16    53 1   
    50    17    33 1   
    51    17    54 1   
    52    17    55 1   
    53    18    32 1   
    54    18    56 1   
    55    18    57 1   
    56    20    21 1   
    57    21    22 1   
    58    21    58 1   
    59    21    59 1   
    60    22    23 1   
    61    22    60 1   
    62    22    61 1   
    63    23    24 1   
    64    23    62 1   
    65    24    25 1   
    66    25    63 1   
    67    25    64 1   
    68    25    65 1   
    69    26    66 1   
    70    27    28 1   
    71    29    67 1   
    72    32    33 1   
    73    32    68 1   
    74    32    69 1   
@<TRIPOS>SUBSTRUCTURE
     1 6R0         1 TEMP              0 ****  ****    0 ROOT
