@<TRIPOS>MOLECULE
molecule
   59    63     1     0     0
SMALL
bcc


@<TRIPOS>ATOM
      1 C1           0.0000     0.0000     0.0000 cc         1 6R1      -0.110100
      2 C3           0.5860    -0.0060     2.1650 ca         1 6R1       0.519800
      3 N6           3.0020    -0.0190     3.3940 nb         1 6R1      -0.841000
      4 C7           3.0010    -0.0050     2.0640 ca         1 6R1       0.774200
      5 C8           1.7660     0.0000     1.3980 ca         1 6R1      -0.402400
      6 C9           1.3430     0.0000     0.0000 cd         1 6R1      -0.121400
      7 C10          2.2410    -0.0000    -1.2110 c3         1 6R1       0.007500
      8 C11          2.0670     1.3140    -1.9790 c3         1 6R1      -0.112900
      9 C12          2.9220     1.2720    -3.2480 c3         1 6R1       0.135900
     10 C14          2.7300    -1.1170    -3.3890 c3         1 6R1       0.135900
     11 C15          1.8670    -1.1700    -2.1260 c3         1 6R1      -0.112900
     12 C19          7.2510    -1.1540     3.2660 c3         1 6R1      -0.074400
     13 C20          8.3040    -0.5590     2.3290 c3         1 6R1       0.169500
     14 C21          7.8520     0.8280     1.8680 c3         1 6R1      -0.074400
     15 C22          6.5190     0.7090     1.1270 c3         1 6R1      -0.095900
     16 N23          9.5840    -0.4460     3.0400 n3         1 6R1      -0.726600
     17 C24         10.6000     0.2020     2.1980 c3         1 6R1       0.120300
     18 C27         11.3540    -1.5910     4.2860 c3         1 6R1       0.139400
     19 N2          -0.4640     0.0010     1.2900 na         1 6R1      -0.268100
     20 N4           0.6900    -0.0080     3.4940 nb         1 6R1      -0.805000
     21 C5           1.8700    -0.0150     4.0750 ca         1 6R1       0.740900
     22 O13          2.5430     0.1440    -4.0390 os         1 6R1      -0.422600
     23 N16          4.1880     0.0010     1.3540 nu         1 6R1      -0.904900
     24 C17          5.4650     0.1140     2.0640 c3         1 6R1       0.242500
     25 C18          5.9170    -1.2730     2.5250 c3         1 6R1      -0.095900
     26 C25         11.8970     0.3530     2.9960 c3         1 6R1       0.139400
     27 O26         12.3180    -0.9320     3.4610 os         1 6R1      -0.425600
     28 C28         10.0510    -1.7620     3.5000 c3         1 6R1       0.120300
     29 H1          -0.6230    -0.0000    -0.8860 h4         1 6R1       0.173000
     30 H2           3.2740    -0.1020    -0.9010 hc         1 6R1       0.043700
     31 H3           2.3860     2.1410    -1.3560 hc         1 6R1       0.055700
     32 H4           1.0250     1.4380    -2.2500 hc         1 6R1       0.055700
     33 H5           3.9670     1.1850    -2.9750 h1         1 6R1       0.046450
     34 H6           2.7660     2.1800    -3.8170 h1         1 6R1       0.046450
     35 H7           3.7730    -1.2300    -3.1170 h1         1 6R1       0.046450
     36 H8           2.4370    -1.9150    -4.0600 h1         1 6R1       0.046450
     37 H9           2.0440    -2.1050    -1.6080 hc         1 6R1       0.055700
     38 H10          0.8220    -1.0950    -2.4000 hc         1 6R1       0.055700
     39 H11          7.1280    -0.5070     4.1260 hc         1 6R1       0.053200
     40 H12          7.5710    -2.1370     3.5900 hc         1 6R1       0.053200
     41 H13          8.4220    -1.2040     1.4670 h1         1 6R1       0.025700
     42 H14          7.7290     1.4710     2.7300 hc         1 6R1       0.053200
     43 H15          8.5980     1.2460     1.2020 hc         1 6R1       0.053200
     44 H16          6.1990     1.6920     0.8030 hc         1 6R1       0.048950
     45 H17          6.6420     0.0620     0.2670 hc         1 6R1       0.048950
     46 H19         10.7850    -0.4090     1.3220 h1         1 6R1       0.044200
     47 H20         10.2470     1.1800     1.8950 h1         1 6R1       0.044200
     48 H21         11.1660    -0.9920     5.1690 h1         1 6R1       0.052950
     49 H22         11.7310    -2.5640     4.5750 h1         1 6R1       0.052950
     50 H23         -1.4300     0.0010     1.5520 hn         1 6R1       0.306700
     51 H24          1.9150    -0.0280     5.1570 h5         1 6R1       0.057100
     52 H25          4.1770    -0.1160     0.3600 hn         1 6R1       0.450800
     53 H26          5.3470     0.7590     2.9270 h1         1 6R1       0.084700
     54 H27          5.1720    -1.6920     3.1900 hc         1 6R1       0.048950
     55 H28          6.0410    -1.9160     1.6620 hc         1 6R1       0.048950
     56 H29         11.7240     1.0040     3.8450 h1         1 6R1       0.052950
     57 H30         12.6650     0.7760     2.3600 h1         1 6R1       0.052950
     58 H31          9.2990    -2.2070     4.1400 h1         1 6R1       0.044200
     59 H32         10.2280    -2.4010     2.6430 h1         1 6R1       0.044200
@<TRIPOS>BOND
     1    26    17 1   
     2    26    27 1   
     3    17    16 1   
     4    27    18 1   
     5    16    13 1   
     6    16    28 1   
     7    22    10 1   
     8    22     9 1   
     9    10    11 1   
    10    13    14 1   
    11    13    12 1   
    12     9     8 1   
    13    18    28 1   
    14    14    15 1   
    15    15    24 1   
    16    12    25 1   
    17    11     7 1   
    18    25    24 1   
    19     8     7 1   
    20     7     6 1   
    21    24    23 1   
    22    23     4 1   
    23     6     5 1   
    24     6     1 2   
    25     4     5 ar  
    26     4     3 ar  
    27     5     2 ar  
    28     1    19 1   
    29     3    21 ar  
    30     2    19 1   
    31     2    20 ar  
    32    21    20 ar  
    33     1    29 1   
    34     7    30 1   
    35     8    31 1   
    36     8    32 1   
    37     9    33 1   
    38     9    34 1   
    39    10    35 1   
    40    10    36 1   
    41    11    37 1   
    42    11    38 1   
    43    12    39 1   
    44    12    40 1   
    45    13    41 1   
    46    14    42 1   
    47    14    43 1   
    48    15    44 1   
    49    15    45 1   
    50    17    46 1   
    51    17    47 1   
    52    18    48 1   
    53    18    49 1   
    54    19    50 1   
    55    21    51 1   
    56    23    52 1   
    57    24    53 1   
    58    25    54 1   
    59    25    55 1   
    60    26    56 1   
    61    26    57 1   
    62    28    58 1   
    63    28    59 1   
@<TRIPOS>SUBSTRUCTURE
     1 6R1         1 TEMP              0 ****  ****    0 ROOT
