@<TRIPOS>MOLECULE
6R1
   59    63     1     0     0
SMALL
bcc


@<TRIPOS>ATOM
      1 C1           0.0000     0.0000     0.0000 cc         1 6R1      -0.286100
      2 C3           0.5860    -0.0060     2.1650 ca         1 6R1       0.291800
      3 N6           3.0020    -0.0190     3.3940 nb         1 6R1      -0.750000
      4 C7           3.0010    -0.0050     2.0640 ca         1 6R1       0.609200
      5 C8           1.7660     0.0000     1.3980 ca         1 6R1      -0.405400
      6 C9           1.3430     0.0000     0.0000 cd         1 6R1      -0.108400
      7 C10          2.2410    -0.0000    -1.2110 c3         1 6R1       0.042500
      8 C11          2.0670     1.3140    -1.9790 c3         1 6R1      -0.067900
      9 C12          2.9220     1.2720    -3.2480 c3         1 6R1       0.214400
     10 C14          2.7300    -1.1170    -3.3890 c3         1 6R1       0.214400
     11 C15          1.8670    -1.1700    -2.1260 c3         1 6R1      -0.067900
     12 C19          7.2510    -1.1540     3.2660 c3         1 6R1      -0.028400
     13 C20          8.3040    -0.5590     2.3290 c3         1 6R1       0.129500
     14 C21          7.8520     0.8280     1.8680 c3         1 6R1      -0.028400
     15 C22          6.5190     0.7090     1.1270 c3         1 6R1      -0.038400
     16 N23          9.5840    -0.4460     3.0400 n3         1 6R1      -0.532600
     17 C24         10.6000     0.2020     2.1980 c3         1 6R1       0.100300
     18 C27         11.3540    -1.5910     4.2860 c3         1 6R1       0.215400
     19 N2          -0.4640     0.0010     1.2900 na         1 6R1       0.281900
     20 N4           0.6900    -0.0080     3.4940 nb         1 6R1      -0.692000
     21 C5           1.8700    -0.0150     4.0750 ca         1 6R1       0.691900
     22 O13          2.5430     0.1440    -4.0390 os         1 6R1      -0.408600
     23 N16          4.1880     0.0010     1.3540 nu         1 6R1      -0.505900
     24 C17          5.4650     0.1140     2.0640 c3         1 6R1       0.132500
     25 C18          5.9170    -1.2730     2.5250 c3         1 6R1      -0.038400
     26 C25         11.8970     0.3530     2.9960 c3         1 6R1       0.215400
     27 O26         12.3180    -0.9320     3.4610 os         1 6R1      -0.412600
     28 C28         10.0510    -1.7620     3.5000 c3         1 6R1       0.100300
     29 H1          -0.6230    -0.0000    -0.8860 h4         1 6R1       0.149000
     30 H2           3.2740    -0.1020    -0.9010 hc         1 6R1       0.024700
     31 H3           2.3860     2.1410    -1.3560 hc         1 6R1       0.027700
     32 H4           1.0250     1.4380    -2.2500 hc         1 6R1       0.027700
     33 H5           3.9670     1.1850    -2.9750 h1         1 6R1       0.006450
     34 H6           2.7660     2.1800    -3.8170 h1         1 6R1       0.006450
     35 H7           3.7730    -1.2300    -3.1170 h1         1 6R1       0.006450
     36 H8           2.4370    -1.9150    -4.0600 h1         1 6R1       0.006450
     37 H9           2.0440    -2.1050    -1.6080 hc         1 6R1       0.027700
     38 H10          0.8220    -1.0950    -2.4000 hc         1 6R1       0.027700
     39 H11          7.1280    -0.5070     4.1260 hc         1 6R1       0.027700
     40 H12          7.5710    -2.1370     3.5900 hc         1 6R1       0.027700
     41 H13          8.4220    -1.2040     1.4670 h1         1 6R1       0.010700
     42 H14          7.7290     1.4710     2.7300 hc         1 6R1       0.027700
     43 H15          8.5980     1.2460     1.2020 hc         1 6R1       0.027700
     44 H16          6.1990     1.6920     0.8030 hc         1 6R1       0.020450
     45 H17          6.6420     0.0620     0.2670 hc         1 6R1       0.020450
     46 H19         10.7850    -0.4090     1.3220 h1         1 6R1       0.021450
     47 H20         10.2470     1.1800     1.8950 h1         1 6R1       0.021450
     48 H21         11.1660    -0.9920     5.1690 h1         1 6R1       0.012200
     49 H22         11.7310    -2.5640     4.5750 h1         1 6R1       0.012200
     50 H23         -1.4300     0.0010     1.5520 hn         1 6R1       0.118700
     51 H24          1.9150    -0.0280     5.1570 h5         1 6R1      -0.006900
     52 H25          4.1770    -0.1160     0.3600 hn         1 6R1       0.308800
     53 H26          5.3470     0.7590     2.9270 h1         1 6R1       0.062700
     54 H27          5.1720    -1.6920     3.1900 hc         1 6R1       0.020450
     55 H28          6.0410    -1.9160     1.6620 hc         1 6R1       0.020450
     56 H29         11.7240     1.0040     3.8450 h1         1 6R1       0.012200
     57 H30         12.6650     0.7760     2.3600 h1         1 6R1       0.012200
     58 H31          9.2990    -2.2070     4.1400 h1         1 6R1       0.021450
     59 H32         10.2280    -2.4010     2.6430 h1         1 6R1       0.021450
@<TRIPOS>BOND
     1     1     6 2   
     2     1    19 1   
     3     1    29 1   
     4     2     5 ar  
     5     2    19 1   
     6     2    20 ar  
     7     3     4 ar  
     8     3    21 ar  
     9     4     5 ar  
    10     4    23 1   
    11     5     6 1   
    12     6     7 1   
    13     7     8 1   
    14     7    11 1   
    15     7    30 1   
    16     8     9 1   
    17     8    31 1   
    18     8    32 1   
    19     9    22 1   
    20     9    33 1   
    21     9    34 1   
    22    10    11 1   
    23    10    22 1   
    24    10    35 1   
    25    10    36 1   
    26    11    37 1   
    27    11    38 1   
    28    12    13 1   
    29    12    25 1   
    30    12    39 1   
    31    12    40 1   
    32    13    14 1   
    33    13    16 1   
    34    13    41 1   
    35    14    15 1   
    36    14    42 1   
    37    14    43 1   
    38    15    24 1   
    39    15    44 1   
    40    15    45 1   
    41    16    17 1   
    42    16    28 1   
    43    17    26 1   
    44    17    46 1   
    45    17    47 1   
    46    18    27 1   
    47    18    28 1   
    48    18    48 1   
    49    18    49 1   
    50    19    50 1   
    51    20    21 ar  
    52    21    51 1   
    53    23    24 1   
    54    23    52 1   
    55    24    25 1   
    56    24    53 1   
    57    25    54 1   
    58    25    55 1   
    59    26    27 1   
    60    26    56 1   
    61    26    57 1   
    62    28    58 1   
    63    28    59 1   
@<TRIPOS>SUBSTRUCTURE
     1 6R1         1 TEMP              0 ****  ****    0 ROOT
