@<TRIPOS>MOLECULE
6R3
   15    14     1     0     0
SMALL
bcc


@<TRIPOS>ATOM
      1 C1           0.0000     0.0000     0.0000 c2         1 6R3       0.107000
      2 C2           1.3380     0.0000     0.0000 ce         1 6R3      -0.461200
      3 C3           2.0750     0.0000     1.2770 c          1 6R3       0.650500
      4 C4           1.3410     0.0000     2.5500 ce         1 6R3      -0.305200
      5 C5           2.0070    -0.0000     3.7040 c2         1 6R3       0.053000
      6 O7           3.2920    -0.0000     1.2780 o          1 6R3      -0.545100
      7 N6           2.0370    -0.0000    -1.2110 nz         1 6R3       0.300600
      8 H1          -0.5420     0.0000    -0.9380 ha         1 6R3       0.118000
      9 H2          -0.5420    -0.0050     0.9380 ha         1 6R3       0.118000
     10 H4           0.2580     0.0000     2.5500 ha         1 6R3       0.123000
     11 H5           3.0900    -0.0000     3.7040 ha         1 6R3       0.102500
     12 H6           1.4650    -0.0000     4.6420 ha         1 6R3       0.102500
     13 H7           2.6120    -0.8170    -1.2640 hn         1 6R3       0.212467
     14 H8           2.6120     0.8170    -1.2640 hn         1 6R3       0.212467
     15 H63          1.3870     0.0000    -1.9710 hn         1 6R3       0.212467
@<TRIPOS>BOND
     1     1     2 2   
     2     1     8 1   
     3     1     9 1   
     4     2     3 1   
     5     2     7 1   
     6     3     4 1   
     7     3     6 2   
     8     4     5 2   
     9     4    10 1   
    10     5    11 1   
    11     5    12 1   
    12     7    13 1   
    13     7    14 1   
    14     7    15 1   
@<TRIPOS>SUBSTRUCTURE
     1 6R3         1 TEMP              0 ****  ****    0 ROOT
