@<TRIPOS>MOLECULE
molecule
   15    14     1     0     0
SMALL
bcc


@<TRIPOS>ATOM
      1 C1           0.0000     0.0000     0.0000 c2         1 6R3      -0.096000
      2 C2           1.3380     0.0000     0.0000 ce         1 6R3      -0.167200
      3 C3           2.0750     0.0000     1.2770 c          1 6R3       0.570500
      4 C4           1.3410     0.0000     2.5500 ce         1 6R3      -0.306200
      5 C5           2.0070    -0.0000     3.7040 c2         1 6R3      -0.039000
      6 O7           3.2920    -0.0000     1.2780 o          1 6R3      -0.504100
      7 N6           2.0370    -0.0000    -1.2110 nz         1 6R3      -0.663400
      8 H1          -0.4270    -0.9860    -0.1350 ha         1 6R3       0.177500
      9 H2          -0.4270     0.2670     0.9590 ha         1 6R3       0.177500
     10 H4           0.2580     0.0000     2.5500 ha         1 6R3       0.144000
     11 H5           1.4650    -0.0000     4.6420 ha         1 6R3       0.152000
     12 H6           3.0900    -0.0000     3.7040 ha         1 6R3       0.152000
     13 H7           1.3880     0.0580    -1.9710 hn         1 6R3       0.466800
     14 H8           2.5680    -0.8450    -1.2890 hn         1 6R3       0.466800
     15 H63          2.6550     0.7870    -1.2390 hn         1 6R3       0.466800
@<TRIPOS>BOND
     1     1     2 2
     2     4     5 2
     3     4     3 1
     4     2     3 1
     5     2     7 1
     6     3     6 2
     7     1     8 1
     8     1     9 1
     9     4    10 1
    10     5    11 1
    11     5    12 1
    12     7    13 1
    13     7    14 1
    14    15     7 1
@<TRIPOS>SUBSTRUCTURE
     1 6R3         1 TEMP              0 ****  ****    0 ROOT
