@<TRIPOS>MOLECULE
molecule
   45    46     1     0     0
SMALL
bcc


@<TRIPOS>ATOM
      1 O01          0.0000     0.0000     0.0000 o          1 6R4      -0.568100
      2 C02          1.2150     0.0000     0.0000 c          1 6R4       0.841100
      3 N03          1.8890     0.0000     1.1680 ns         1 6R4      -0.630300
      4 S04          1.0650     0.1230     2.5990 sy         1 6R4       1.447900
      5 C05          0.0680    -1.3210     2.7540 ca         1 6R4      -0.249500
      6 C06         -1.3060    -1.2120     2.7940 ca         1 6R4      -0.017000
      7 C07         -2.0910    -2.3450     2.9160 ca         1 6R4      -0.117000
      8 C08         -1.5030    -3.5950     2.9980 ca         1 6R4      -0.094000
      9 C09         -0.1290    -3.7190     2.9590 ca         1 6R4      -0.097000
     10 C10          0.6680    -2.5800     2.8310 ca         1 6R4      -0.050600
     11 C11          2.1400    -2.7050     2.7870 c          1 6R4       0.649700
     12 O12          2.7200    -3.9000     3.0050 os         1 6R4      -0.416900
     13 C13          4.1700    -3.9490     2.9470 c3         1 6R4       0.139700
     14 O14          2.8250    -1.7300     2.5560 o          1 6R4      -0.558000
     15 O15          2.0390     0.0510     3.6300 o          1 6R4      -0.611800
     16 O16          0.1680     1.2160     2.4520 o          1 6R4      -0.611800
     17 N17          1.8890    -0.0040    -1.1670 n          1 6R4      -0.249400
     18 N18          3.2830    -0.0050    -1.3210 n2         1 6R4      -0.602300
     19 C19          3.5480    -0.0100    -2.5930 cc         1 6R4       0.613200
     20 O20          4.7870    -0.0130    -3.1410 os         1 6R4      -0.387400
     21 C21          5.8960    -0.0080    -2.2400 c3         1 6R4       0.148400
     22 C22          7.2010    -0.0120    -3.0380 c3         1 6R4      -0.086400
     23 C23          8.3880    -0.0080    -2.0720 c3         1 6R4      -0.089100
     24 N24          2.3620    -0.0140    -3.2900 n          1 6R4      -0.398300
     25 C25          2.2250    -0.0210    -4.7490 c3         1 6R4       0.114300
     26 C26          1.3480    -0.0150    -2.4030 c          1 6R4       0.794500
     27 O27          0.1610    -0.0180    -2.6680 o          1 6R4      -0.582500
     28 H1           2.8890    -0.0210     1.1680 hn         1 6R4       0.374500
     29 H2          -1.7730    -0.2370     2.7300 ha         1 6R4       0.171000
     30 H3          -3.1700    -2.2540     2.9470 ha         1 6R4       0.143000
     31 H4          -2.1220    -4.4780     3.0950 ha         1 6R4       0.139000
     32 H5           0.3300    -4.6980     3.0220 ha         1 6R4       0.152000
     33 H6           4.5080    -4.9460     3.2070 h1         1 6R4       0.052700
     34 H7           4.5000    -3.7060     1.9450 h1         1 6R4       0.052700
     35 H8           4.5840    -3.2340     3.6470 h1         1 6R4       0.052700
     36 H9           5.8540    -0.8900    -1.6120 h1         1 6R4       0.054200
     37 H10          5.8540     0.8790    -1.6200 h1         1 6R4       0.054200
     38 H11          7.2440     0.8690    -3.6660 hc         1 6R4       0.056200
     39 H12          7.2430    -0.9000    -3.6570 hc         1 6R4       0.056200
     40 H13          8.3510    -0.8940    -1.4500 hc         1 6R4       0.042033
     41 H14          8.3410     0.8750    -1.4460 hc         1 6R4       0.042033
     42 H15          9.3130    -0.0020    -2.6360 hc         1 6R4       0.042033
     43 H16          1.1760     0.0230    -5.0130 h1         1 6R4       0.060700
     44 H17          2.7380     0.8380    -5.1640 h1         1 6R4       0.060700
     45 H18          2.6610    -0.9290    -5.1480 h1         1 6R4       0.060700
@<TRIPOS>BOND
     1    13    12 1
     2    14    11 2
     3    12    11 1
     4    11    10 1
     5    27    26 2
     6    25    24 1
     7    16     4 2
     8    26    24 1
     9    26    17 1
    10    24    19 1
    11    10     9 ar
    12    10     5 ar
    13     9     8 ar
    14     3     4 1
    15     3     2 1
    16     4     5 1
    17     4    15 2
    18    17     2 1
    19    17    18 1
    20     5     6 ar
    21    19    20 1
    22    19    18 2
    23     2     1 2
    24     8     7 ar
    25    20    21 1
    26     6     7 ar
    27    21    22 1
    28    22    23 1
    29     3    28 1
    30     6    29 1
    31     7    30 1
    32     8    31 1
    33     9    32 1
    34    13    33 1
    35    13    34 1
    36    13    35 1
    37    21    36 1
    38    21    37 1
    39    22    38 1
    40    22    39 1
    41    23    40 1
    42    23    41 1
    43    23    42 1
    44    25    43 1
    45    25    44 1
    46    25    45 1
@<TRIPOS>SUBSTRUCTURE
     1 6R4         1 TEMP              0 ****  ****    0 ROOT
