@<TRIPOS>MOLECULE
6R4
   45    46     1     0     0
SMALL
bcc


@<TRIPOS>ATOM
      1 O01          0.0000     0.0000     0.0000 o          1 6R4      -0.614100
      2 C02          1.2150     0.0000     0.0000 c          1 6R4       0.669100
      3 N03          1.8890     0.0000     1.1680 ns         1 6R4      -0.282300
      4 S04          1.0650     0.1230     2.5990 sy         1 6R4       1.062900
      5 C05          0.0680    -1.3210     2.7540 ca         1 6R4      -0.088500
      6 C06         -1.3060    -1.2120     2.7940 ca         1 6R4       0.018000
      7 C07         -2.0910    -2.3450     2.9160 ca         1 6R4      -0.096000
      8 C08         -1.5030    -3.5950     2.9980 ca         1 6R4      -0.067000
      9 C09         -0.1290    -3.7190     2.9590 ca         1 6R4      -0.081000
     10 C10          0.6680    -2.5800     2.8310 ca         1 6R4      -0.063600
     11 C11          2.1400    -2.7050     2.7870 c          1 6R4       0.714700
     12 O12          2.7200    -3.9000     3.0050 os         1 6R4      -0.410900
     13 C13          4.1700    -3.9490     2.9470 c3         1 6R4       0.272700
     14 O14          2.8250    -1.7300     2.5560 o          1 6R4      -0.581000
     15 O15          2.0390     0.0510     3.6300 o          1 6R4      -0.566800
     16 O16          0.1680     1.2160     2.4520 o          1 6R4      -0.566800
     17 N17          1.8890    -0.0040    -1.1670 n          1 6R4       0.121600
     18 N18          3.2830    -0.0050    -1.3210 n2         1 6R4      -0.723300
     19 C19          3.5480    -0.0100    -2.5930 cc         1 6R4       0.512200
     20 O20          4.7870    -0.0130    -3.1410 os         1 6R4      -0.372400
     21 C21          5.8960    -0.0080    -2.2400 c3         1 6R4       0.222400
     22 C22          7.2010    -0.0120    -3.0380 c3         1 6R4      -0.037400
     23 C23          8.3880    -0.0080    -2.0720 c3         1 6R4       0.014900
     24 N24          2.3620    -0.0140    -3.2900 n          1 6R4      -0.017300
     25 C25          2.2250    -0.0210    -4.7490 c3         1 6R4       0.094300
     26 C26          1.3480    -0.0150    -2.4030 c          1 6R4       0.582500
     27 O27          0.1610    -0.0180    -2.6680 o          1 6R4      -0.629500
     28 H1           2.8890    -0.0210     1.1680 hn         1 6R4       0.266500
     29 H2          -1.7730    -0.2370     2.7300 ha         1 6R4       0.140000
     30 H3          -3.1700    -2.2540     2.9470 ha         1 6R4       0.110000
     31 H4          -2.1220    -4.4780     3.0950 ha         1 6R4       0.106000
     32 H5           0.3300    -4.6980     3.0220 ha         1 6R4       0.119000
     33 H6           4.5080    -4.9460     3.2070 h1         1 6R4       0.002700
     34 H7           4.5000    -3.7060     1.9450 h1         1 6R4       0.002700
     35 H8           4.5840    -3.2340     3.6470 h1         1 6R4       0.002700
     36 H9           5.8540    -0.8900    -1.6120 h1         1 6R4       0.015700
     37 H10          5.8540     0.8790    -1.6200 h1         1 6R4       0.015700
     38 H11          7.2440     0.8690    -3.6660 hc         1 6R4       0.021200
     39 H12          7.2430    -0.9000    -3.6570 hc         1 6R4       0.021200
     40 H13          8.3510    -0.8940    -1.4500 hc         1 6R4       0.005700
     41 H14          8.3410     0.8750    -1.4460 hc         1 6R4       0.005700
     42 H15          9.3130    -0.0020    -2.6360 hc         1 6R4       0.005700
     43 H16          1.1760     0.0230    -5.0130 h1         1 6R4       0.025367
     44 H17          2.7380     0.8380    -5.1640 h1         1 6R4       0.025367
     45 H18          2.6610    -0.9290    -5.1480 h1         1 6R4       0.025367
@<TRIPOS>BOND
     1     1     2 2   
     2     2     3 1   
     3     2    17 1   
     4     3     4 1   
     5     3    28 1   
     6     4     5 1   
     7     4    15 2   
     8     4    16 2   
     9     5     6 ar  
    10     5    10 ar  
    11     6     7 ar  
    12     6    29 1   
    13     7     8 ar  
    14     7    30 1   
    15     8     9 ar  
    16     8    31 1   
    17     9    10 ar  
    18     9    32 1   
    19    10    11 1   
    20    11    12 1   
    21    11    14 2   
    22    12    13 1   
    23    13    33 1   
    24    13    34 1   
    25    13    35 1   
    26    17    18 1   
    27    17    26 1   
    28    18    19 2   
    29    19    20 1   
    30    19    24 1   
    31    20    21 1   
    32    21    22 1   
    33    21    36 1   
    34    21    37 1   
    35    22    23 1   
    36    22    38 1   
    37    22    39 1   
    38    23    40 1   
    39    23    41 1   
    40    23    42 1   
    41    24    25 1   
    42    24    26 1   
    43    25    43 1   
    44    25    44 1   
    45    25    45 1   
    46    26    27 2   
@<TRIPOS>SUBSTRUCTURE
     1 6R4         1 TEMP              0 ****  ****    0 ROOT
