@<TRIPOS>MOLECULE
molecule
   39    40     1     0     0
SMALL
bcc


@<TRIPOS>ATOM
      1 C10          0.0000     0.0000     0.0000 cc         1 6R5      -0.096600
      2 O01          3.3060     2.4520    -0.4220 o          1 6R5      -0.572100
      3 C02          2.7210     2.5880    -1.4780 c          1 6R5       0.846100
      4 N03          2.2800     1.5040    -2.1480 ns         1 6R5      -0.636300
      5 S04          2.4160    -0.0000    -1.4700 sy         1 6R5       1.451900
      6 C05          1.4450     0.0000     0.0000 cc         1 6R5      -0.310500
      7 C06          1.9660     0.0000     1.2210 cd         1 6R5       0.115600
      8 C07          3.4420    -0.0010     1.5240 c3         1 6R5      -0.045800
      9 S08          0.6970     0.0010     2.4340 ss         1 6R5      -0.063800
     10 C09         -0.5320     0.0010     1.2520 cd         1 6R5      -0.064100
     11 C11         -0.8110     0.0060    -1.2260 c          1 6R5       0.659700
     12 O12         -2.1510    -0.1210    -1.1490 os         1 6R5      -0.425900
     13 C13         -2.8880    -0.1070    -2.3990 c3         1 6R5       0.141700
     14 O14         -0.2740     0.1250    -2.3100 o          1 6R5      -0.539000
     15 O15          1.7840    -0.9030    -2.3680 o          1 6R5      -0.605800
     16 O16          3.7690    -0.1340    -1.0570 o          1 6R5      -0.605800
     17 N17          2.5130     3.8210    -1.9790 n          1 6R5      -0.249400
     18 N18          1.8550     4.1290    -3.1790 n2         1 6R5      -0.600300
     19 C19          1.8540     5.4220    -3.3160 cc         1 6R5       0.610200
     20 O20          1.3110     6.1050    -4.3520 os         1 6R5      -0.385400
     21 C21          0.6870     5.3340    -5.3820 c3         1 6R5       0.140700
     22 N22          2.4960     5.9810    -2.2360 n          1 6R5      -0.397300
     23 C23          2.7070     7.4130    -2.0100 c3         1 6R5       0.115300
     24 C24          2.8920     4.9870    -1.4160 c          1 6R5       0.794500
     25 O25          3.4890     5.1170    -0.3640 o          1 6R5      -0.580500
     26 H1           1.9140     1.6030    -3.0740 hn         1 6R5       0.369500
     27 H2           3.5910    -0.0890     2.5940 hc         1 6R5       0.077700
     28 H3           3.8830     0.9240     1.1730 hc         1 6R5       0.077700
     29 H4           3.9130    -0.8380     1.0240 hc         1 6R5       0.077700
     30 H5          -1.5940     0.0020     1.4690 h4         1 6R5       0.189000
     31 H6          -2.5160    -0.8920    -3.0460 h1         1 6R5       0.050367
     32 H7          -2.7580     0.8530    -2.8840 h1         1 6R5       0.050367
     33 H8          -3.9400    -0.2710    -2.2000 h1         1 6R5       0.050367
     34 H9           0.2980     5.9980    -6.1440 h1         1 6R5       0.058367
     35 H10          1.4160     4.6650    -5.8240 h1         1 6R5       0.058367
     36 H11         -0.1240     4.7560    -4.9580 h1         1 6R5       0.058367
     37 H12          3.6840     7.5690    -1.5710 h1         1 6R5       0.060700
     38 H13          1.9440     7.7890    -1.3390 h1         1 6R5       0.060700
     39 H14          2.6470     7.9400    -2.9550 h1         1 6R5       0.060700
@<TRIPOS>BOND
     1    14    11 2
     2    13    12 1
     3    12    11 1
     4    11     1 1
     5    25    24 2
     6    23    22 1
     7     1    10 2
     8     1     6 1
     9    15     5 2
    10    24    22 1
    11    24    17 1
    12    10     9 1
    13    22    19 1
    14     4     5 1
    15     4     3 1
    16     6     5 1
    17     6     7 2
    18     5    16 2
    19    17     3 1
    20    17    18 1
    21    19    20 1
    22    19    18 2
    23     3     2 2
    24     9     7 1
    25    20    21 1
    26     7     8 1
    27     4    26 1
    28     8    27 1
    29     8    28 1
    30     8    29 1
    31    10    30 1
    32    13    31 1
    33    13    32 1
    34    13    33 1
    35    21    34 1
    36    21    35 1
    37    21    36 1
    38    23    37 1
    39    23    38 1
    40    23    39 1
@<TRIPOS>SUBSTRUCTURE
     1 6R5         1 TEMP              0 ****  ****    0 ROOT
