@<TRIPOS>MOLECULE
molecule
   18    18     1     0     0
SMALL
bcc


@<TRIPOS>ATOM
      1 C01          0.0000     0.0000     0.0000 ca         1 6R6      -0.041000
      2 C02          1.3800     0.0000     0.0000 ca         1 6R6      -0.261000
      3 C03          2.0770     0.0000     1.2020 ca         1 6R6       0.263600
      4 C04          1.3690     0.0020     2.4140 ca         1 6R6      -0.198600
      5 C05         -0.0290     0.0020     2.3980 ca         1 6R6       0.008000
      6 C06         -0.7010     0.0070     1.1960 ca         1 6R6      -0.252200
      7 N07         -2.1810     0.0090     1.1800 no         1 6R6       0.306200
      8 O08         -2.8010     0.0050     2.2300 o          1 6R6      -0.249000
      9 O09         -2.7800     0.0130     0.1190 o          1 6R6      -0.249000
     10 C10          2.0960     0.0010     3.6960 c          1 6R6       0.899200
     11 O11          1.4170    -0.1170     4.8550 o          1 6R6      -0.831800
     12 O12          3.3060     0.1090     3.7090 o          1 6R6      -0.831800
     13 N13          3.4650    -0.0010     1.2040 nv         1 6R6      -0.893200
     14 H1          -0.5380     0.0020    -0.9400 ha         1 6R6       0.137000
     15 H2           1.9210    -0.0030    -0.9390 ha         1 6R6       0.120000
     16 H3          -0.5820     0.0050     3.3290 ha         1 6R6       0.186000
     17 H5           3.9630    -0.2590     2.0330 hn         1 6R6       0.443800
     18 H6           3.9660     0.2130     0.3650 hn         1 6R6       0.443800
@<TRIPOS>BOND
     1     9     7 1
     2     8     7 1
     3     7     6 1
     4     6     5 ar
     5     6     1 ar
     6     5     4 ar
     7     1     2 ar
     8    12    10 1
     9     4    10 1
    10     4     3 ar
    11     2     3 ar
    12    10    11 1
    13     3    13 1
    14     1    14 1
    15     2    15 1
    16     5    16 1
    17    13    17 1
    18    13    18 1
@<TRIPOS>SUBSTRUCTURE
     1 6R6         1 TEMP              0 ****  ****    0 ROOT
