@<TRIPOS>MOLECULE
6R6
   18    18     1     0     0
SMALL
bcc


@<TRIPOS>ATOM
      1 C01          0.0000     0.0000     0.0000 ca         1 6R6       0.019000
      2 C02          1.3800     0.0000     0.0000 ca         1 6R6      -0.262000
      3 C03          2.0770     0.0000     1.2020 ca         1 6R6       0.134600
      4 C04          1.3690     0.0020     2.4140 ca         1 6R6      -0.223600
      5 C05         -0.0290     0.0020     2.3980 ca         1 6R6       0.074000
      6 C06         -0.7010     0.0070     1.1960 ca         1 6R6      -0.567200
      7 N07         -2.1810     0.0090     1.1800 no         1 6R6       1.069200
      8 O08         -2.8010     0.0050     2.2300 o          1 6R6      -0.490000
      9 O09         -2.7800     0.0130     0.1190 o          1 6R6      -0.490000
     10 C10          2.0960     0.0010     3.6960 c          1 6R6       0.997200
     11 O11          1.4170    -0.1170     4.8550 o          1 6R6      -0.878300
     12 O12          3.3060     0.1090     3.7090 o          1 6R6      -0.878300
     13 N13          3.4650    -0.0010     1.2040 nv         1 6R6      -0.449200
     14 H1          -0.5380     0.0020    -0.9400 ha         1 6R6       0.106000
     15 H2           1.9210    -0.0030    -0.9390 ha         1 6R6       0.100000
     16 H3          -0.5820     0.0050     3.3290 ha         1 6R6       0.151000
     17 H5           3.9630    -0.2590     2.0330 hn         1 6R6       0.292800
     18 H6           3.9660     0.2130     0.3650 hn         1 6R6       0.292800
@<TRIPOS>BOND
     1     1     2 ar  
     2     1     6 ar  
     3     1    14 1   
     4     2     3 ar  
     5     2    15 1   
     6     3     4 ar  
     7     3    13 1   
     8     4     5 ar  
     9     4    10 1   
    10     5     6 ar  
    11     5    16 1   
    12     6     7 1   
    13     7     8 1   
    14     7     9 1   
    15    10    11 1   
    16    10    12 1   
    17    13    17 1   
    18    13    18 1   
@<TRIPOS>SUBSTRUCTURE
     1 6R6         1 TEMP              0 ****  ****    0 ROOT
