@<TRIPOS>MOLECULE
molecule
   17    17     1     0     0
SMALL
bcc


@<TRIPOS>ATOM
      1 OAA          0.0000     0.0000     0.0000 o          1 6R7      -0.815300
      2 CAB          1.2150     0.0000     0.0000 c          1 6R7       0.880200
      3 OAC          1.8890     0.0000     1.1670 o          1 6R7      -0.815300
      4 CAD          1.9520    -0.0040    -1.2760 ca         1 6R7      -0.126600
      5 CAE          3.3500    -0.0090    -1.2820 ca         1 6R7      -0.017000
      6 CAF          4.0320    -0.0130    -2.4780 ca         1 6R7      -0.207200
      7 NAK          5.5120    -0.0180    -2.4810 no         1 6R7       0.301200
      8 OAM          6.1240    -0.0180    -1.4290 o          1 6R7      -0.237000
      9 OAL          6.1190    -0.0230    -3.5380 o          1 6R7      -0.237000
     10 CAG          3.3400    -0.0130    -3.6780 ca         1 6R7      -0.074000
     11 CAH          1.9590    -0.0090    -3.6880 ca         1 6R7      -0.233000
     12 CAI          1.2550    -0.0100    -2.4920 ca         1 6R7       0.177100
     13 OAJ         -0.1020    -0.0110    -2.5010 oh         1 6R7      -0.459100
     14 H2           3.8950     0.0390    -0.3470 ha         1 6R7       0.193000
     15 H3           3.8850    -0.0140    -4.6140 ha         1 6R7       0.141000
     16 H4           1.4250    -0.0110    -4.6300 ha         1 6R7       0.126000
     17 H5          -0.4120    -0.7120    -3.0500 ho         1 6R7       0.403000
@<TRIPOS>BOND
     1     1     2 1
     2     3     2 1
     3     2     4 1
     4    13    12 1
     5     4    12 ar
     6     4     5 ar
     7    12    11 ar
     8     5     6 ar
     9    11    10 ar
    10     6    10 ar
    11     6     7 1
    12     9     7 1
    13     7     8 1
    14     5    14 1
    15    10    15 1
    16    11    16 1
    17    13    17 1
@<TRIPOS>SUBSTRUCTURE
     1 6R7         1 TEMP              0 ****  ****    0 ROOT
