@<TRIPOS>MOLECULE
6R7
   17    17     1     0     0
SMALL
bcc


@<TRIPOS>ATOM
      1 OAA          0.0000     0.0000     0.0000 o          1 6R7      -0.866800
      2 CAB          1.2150     0.0000     0.0000 c          1 6R7       0.971200
      3 OAC          1.8890     0.0000     1.1670 o          1 6R7      -0.866800
      4 CAD          1.9520    -0.0040    -1.2760 ca         1 6R7      -0.151600
      5 CAE          3.3500    -0.0090    -1.2820 ca         1 6R7       0.049000
      6 CAF          4.0320    -0.0130    -2.4780 ca         1 6R7      -0.519200
      7 NAK          5.5120    -0.0180    -2.4810 no         1 6R7       1.062200
      8 OAM          6.1240    -0.0180    -1.4290 o          1 6R7      -0.479000
      9 OAL          6.1190    -0.0230    -3.5380 o          1 6R7      -0.479000
     10 CAG          3.3400    -0.0130    -3.6780 ca         1 6R7      -0.014000
     11 CAH          1.9590    -0.0090    -3.6880 ca         1 6R7      -0.237000
     12 CAI          1.2550    -0.0100    -2.4920 ca         1 6R7       0.214100
     13 OAJ         -0.1020    -0.0110    -2.5010 oh         1 6R7      -0.437100
     14 H2           3.8950     0.0390    -0.3470 ha         1 6R7       0.158000
     15 H3           3.8850    -0.0140    -4.6140 ha         1 6R7       0.111000
     16 H4           1.4250    -0.0110    -4.6300 ha         1 6R7       0.103000
     17 H5          -0.4120    -0.7120    -3.0500 ho         1 6R7       0.381000
@<TRIPOS>BOND
     1     1     2 1   
     2     2     3 1   
     3     2     4 1   
     4     4     5 ar  
     5     4    12 ar  
     6     5     6 ar  
     7     5    14 1   
     8     6     7 1   
     9     6    10 ar  
    10     7     8 1   
    11     7     9 1   
    12    10    11 ar  
    13    10    15 1   
    14    11    12 ar  
    15    11    16 1   
    16    12    13 1   
    17    13    17 1   
@<TRIPOS>SUBSTRUCTURE
     1 6R7         1 TEMP              0 ****  ****    0 ROOT
