@<TRIPOS>MOLECULE
molecule
   22    22     1     0     0
SMALL
bcc


@<TRIPOS>ATOM
      1 O14          1.4290     0.0000     0.0000 oh         1 6R8      -0.538800
      2 O11         -0.5850    -0.0250    -2.7920 o          1 6R8      -0.796800
      3 C10         -0.8330    -1.1540    -2.0950 c          1 6R8       0.871800
      4 O12         -1.3410    -2.1110    -2.6490 o          1 6R8      -0.796800
      5 C01          0.0000     0.0000     0.0000 c3         1 6R8       0.391200
      6 C02         -0.5070     0.0000     1.4410 c3         1 6R8      -0.095200
      7 C03         -0.2270    -1.3300     2.0870 c2         1 6R8      -0.082200
      8 C04         -0.2910    -2.4540     1.3720 ce         1 6R8      -0.118100
      9 C05         -0.6340    -2.3940    -0.0490 cf         1 6R8      -0.032000
     10 C06         -0.5000    -1.2250    -0.7190 ce         1 6R8      -0.185400
     11 N07         -0.0160    -3.7590     2.0160 no         1 6R8       0.272100
     12 O08          0.2690    -3.8070     3.1980 o          1 6R8      -0.188500
     13 O09         -0.0750    -4.7840     1.3610 o          1 6R8      -0.188500
     14 N13         -0.4880     1.2020    -0.6900 nz         1 6R8      -0.833600
     15 H1           1.7430     0.8490     0.2620 ho         1 6R8       0.403000
     16 H3          -0.0030     0.7810     1.9980 hc         1 6R8       0.076700
     17 H4           0.0260    -1.3740     3.1400 ha         1 6R8       0.178000
     18 H5          -1.1100    -3.2410    -0.5280 ha         1 6R8       0.211000
     19 H7           0.0800     1.3800    -1.4940 hn         1 6R8       0.458467
     20 H8          -0.4420     1.9850    -0.0690 hn         1 6R8       0.458467
     21 H6          -1.5750     0.1810     1.4450 hc         1 6R8       0.076700
     22 H133        -1.4290     1.0510    -0.9970 hn         1 6R8       0.458467
@<TRIPOS>BOND
     1     4     3 1   
     2    14     5 1   
     3     3     2 1   
     4     3    10 1   
     5    10     5 1   
     6    10     9 2   
     7     5     1 1   
     8     5     6 1   
     9     9     8 1   
    10     6     7 1   
    11     8     7 2   
    12     8    11 1   
    13    13    11 1   
    14    11    12 1   
    15     1    15 1   
    16     6    16 1   
    17     7    17 1   
    18     9    18 1   
    19    14    19 1   
    20    14    20 1   
    21     6    21 1   
    22    22    14 1   
@<TRIPOS>SUBSTRUCTURE
     1 6R8         1 TEMP              0 ****  ****    0 ROOT
