@<TRIPOS>MOLECULE
molecule
   41    43     1     0     0
SMALL
bcc


@<TRIPOS>ATOM
      1 C01          0.0000     0.0000     0.0000 c3         1 6R9      -0.151100
      2 C02          1.5070     0.0000     0.0000 c          1 6R9       0.680100
      3 C09          5.8010    -0.2680    -2.8120 c3         1 6R9       0.238400
      4 C10          6.0410    -0.3700    -4.3190 c3         1 6R9       0.122100
      5 C11          7.5350    -0.6400    -4.6100 c3         1 6R9       0.091100
      6 C12          7.8220     0.1780    -5.8890 c3         1 6R9       0.084100
      7 C13          6.4690     0.8480    -6.2190 c3         1 6R9       0.246800
      8 C16          6.6540     3.3550    -6.0160 cc         1 6R9       0.449700
      9 C18          7.0660     3.9370    -8.0640 ca         1 6R9      -0.207200
     10 C19          6.9470     2.5360    -8.0430 ca         1 6R9       0.469800
     11 C21          7.3540     2.4840   -10.3040 ca         1 6R9       0.725900
     12 C23          7.3410     4.5590    -9.2930 ca         1 6R9       0.780200
     13 N15          6.6820     2.2000    -6.7390 na         1 6R9      -0.245000
     14 N17          6.8800     4.3730    -6.7960 nd         1 6R9      -0.606100
     15 N20          7.0970     1.8570    -9.1750 nb         1 6R9      -0.779000
     16 N22          7.4750     3.7970   -10.3740 nb         1 6R9      -0.845000
     17 N24          7.4680     5.9350    -9.3770 nv         1 6R9      -0.991500
     18 O03          2.1120     0.0000     1.0460 o          1 6R9      -0.507000
     19 O04          2.1790    -0.0010    -1.1620 os         1 6R9      -0.551500
     20 O06          4.2370    -1.1440    -0.2530 o          1 6R9      -0.795500
     21 O07          4.2890     1.3750    -0.4090 o          1 6R9      -0.795500
     22 O08          4.4010    -0.1340    -2.5600 os         1 6R9      -0.595200
     23 O14          5.7640     0.8950    -4.9600 os         1 6R9      -0.389600
     24 O25          8.2290    -0.6830    -6.9540 oh         1 6R9      -0.566800
     25 O26          7.7540    -2.0320    -4.8470 oh         1 6R9      -0.574800
     26 P05          3.7870    -0.0010    -1.0780 p5         1 6R9       1.330800
     27 H1          -0.3610    -0.6800    -0.7620 hc         1 6R9       0.051033
     28 H2          -0.3610    -0.3200     0.9700 hc         1 6R9       0.051033
     29 H3          -0.3610     1.0000    -0.2070 hc         1 6R9       0.051033
     30 H4           6.1720    -1.1620    -2.3260 h1         1 6R9       0.043700
     31 H5           6.3230     0.5980    -2.4220 h1         1 6R9       0.043700
     32 H6           5.4280    -1.1510    -4.7520 h1         1 6R9       0.084700
     33 H7           8.1480    -0.2870    -3.7900 h1         1 6R9       0.052700
     34 H8           8.5770     0.9310    -5.6920 h1         1 6R9       0.049700
     35 H9           5.9200     0.2470    -6.9330 h2         1 6R9       0.105700
     36 H10          6.4700     3.4170    -4.9500 h5         1 6R9       0.103800
     37 H11          7.4710     1.9000   -11.2090 h5         1 6R9       0.054100
     38 H12          7.7010     6.3640   -10.2510 hn         1 6R9       0.445800
     39 H13          7.3220     6.5020    -8.5650 hn         1 6R9       0.445800
     40 H15          9.1550    -0.5850    -7.1010 ho         1 6R9       0.399000
     41 H16          8.4510    -2.3400    -4.2920 ho         1 6R9       0.399000
@<TRIPOS>BOND
     1     1     2 1   
     2    18     2 2   
     3    20    26 1   
     4     2    19 1   
     5    19    26 1   
     6    17    12 1   
     7    26    22 1   
     8    26    21 1   
     9    14     8 2   
    10    14     9 1   
    11     8    13 1   
    12    22     3 1   
    13    12     9 ar  
    14    12    16 ar  
    15     9    10 ar  
    16    23     7 1   
    17    23     4 1   
    18    13    10 1   
    19    13     7 1   
    20    16    11 ar  
    21    10    15 ar  
    22     3     4 1   
    23     7     6 1   
    24    11    15 ar  
    25     4     5 1   
    26     6     5 1   
    27     6    24 1   
    28     5    25 1   
    29     1    27 1   
    30     1    28 1   
    31     1    29 1   
    32     3    30 1   
    33     3    31 1   
    34     4    32 1   
    35     5    33 1   
    36     6    34 1   
    37     7    35 1   
    38     8    36 1   
    39    11    37 1   
    40    17    38 1   
    41    17    39 1   
    42    24    40 1   
    43    25    41 1   
@<TRIPOS>SUBSTRUCTURE
     1 6R9         1 TEMP              0 ****  ****    0 ROOT
