@<TRIPOS>MOLECULE
6RB
   65    69     1     0     0
SMALL
bcc


@<TRIPOS>ATOM
      1 CAA          0.0000     0.0000     0.0000 c3         1 6RB       0.243700
      2 OAX          1.4280     0.0000     0.0000 os         1 6RB      -0.305900
      3 CBB          2.0450     0.0000     1.2110 ca         1 6RB       0.170100
      4 CAL          1.3050    -0.0070     2.3590 ca         1 6RB      -0.234000
      5 CAK          1.9220    -0.0120     3.6080 ca         1 6RB      -0.059000
      6 CBG          3.4520    -0.0000     1.2900 ca         1 6RB      -0.060000
      7 CAN          4.2480     0.0010     0.1340 ca         1 6RB      -0.072000
      8 CAH          5.6040     0.0010     0.2500 ca         1 6RB      -0.113000
      9 CAG          6.2180    -0.0010     1.5000 ca         1 6RB      -0.089000
     10 CAM          5.4780    -0.0020     2.6430 ca         1 6RB      -0.096000
     11 CBF          4.0750    -0.0010     2.5630 ca         1 6RB       0.017000
     12 CBA          3.2780    -0.0130     3.7210 ca         1 6RB      -0.120300
     13 CAT          3.9230    -0.0190     5.0830 c3         1 6RB       0.216100
     14 NBH          4.3500     1.3440     5.4290 n3         1 6RB      -0.549600
     15 CAU          5.2040     1.3410     6.6300 c3         1 6RB       0.255100
     16 CBD          5.5050     2.7680     6.9950 cc         1 6RB      -0.207600
     17 CAQ          3.1910     2.2320     5.5950 c3         1 6RB       0.135800
     18 CAP          3.6510     3.6970     5.5670 c3         1 6RB       0.080900
     19 CBE          4.8120     3.8340     6.5180 cd         1 6RB      -0.338600
     20 NBI          5.3590     4.9350     7.0520 na         1 6RB       0.641400
     21 CAR          4.9090     6.3060     6.7940 c3         1 6RB      -0.059700
     22 CAO          3.8430     6.6940     7.8210 c3         1 6RB       0.211400
     23 OAC          3.4050     8.0310     7.5700 oh         1 6RB      -0.587800
     24 NAV          6.3380     4.6110     7.8250 nd         1 6RB      -0.663800
     25 CBC          6.4900     3.2970     7.8420 cc         1 6RB       0.266800
     26 CAY          7.5000     2.5360     8.6050 c          1 6RB       0.526600
     27 OAB          7.5290     1.3230     8.5320 o          1 6RB      -0.664100
     28 NAW          8.3880     3.1860     9.3830 ns         1 6RB      -0.184900
     29 CAS          9.3890     2.4310    10.1410 c3         1 6RB       0.109300
     30 CAZ         10.2520     3.3860    10.9240 ca         1 6RB      -0.124300
     31 CAI         11.4020     3.9030    10.3550 ca         1 6RB      -0.083500
     32 CAE         12.1940     4.7790    11.0730 ca         1 6RB      -0.103000
     33 CAD         11.8370     5.1380    12.3590 ca         1 6RB      -0.094000
     34 CAF         10.6880     4.6220    12.9270 ca         1 6RB      -0.103000
     35 CAJ          9.8920     3.7490    12.2080 ca         1 6RB      -0.083500
     36 H1          -0.3610     0.0030    -1.0210 h1         1 6RB      -0.001633
     37 H2          -0.3610    -0.8860     0.5080 h1         1 6RB      -0.001633
     38 H3          -0.3610     0.8830     0.5130 h1         1 6RB      -0.001633
     39 H4           0.2230    -0.0070     2.2980 ha         1 6RB       0.120000
     40 H5           1.3120    -0.0180     4.5030 ha         1 6RB       0.101000
     41 H6           3.7850     0.0020    -0.8450 ha         1 6RB       0.114000
     42 H7           6.2160     0.0020    -0.6450 ha         1 6RB       0.101000
     43 H8           7.3000    -0.0000     1.5640 ha         1 6RB       0.101000
     44 H9           5.9680    -0.0030     3.6100 ha         1 6RB       0.123000
     45 H10          3.2110    -0.3720     5.8190 h1         1 6RB       0.015700
     46 H11          4.7850    -0.6750     5.0710 h1         1 6RB       0.015700
     47 H13          4.6480     0.8910     7.4430 h1         1 6RB       0.032200
     48 H14          6.1360     0.8470     6.3850 h1         1 6RB       0.032200
     49 H15          2.5220     2.0730     4.7580 h1         1 6RB       0.023200
     50 H16          2.7530     2.0350     6.5660 h1         1 6RB       0.023200
     51 H17          3.9980     3.9280     4.5670 hc         1 6RB       0.026700
     52 H18          2.8390     4.3180     5.9250 hc         1 6RB       0.026700
     53 H19          4.4900     6.3670     5.7970 h1         1 6RB       0.052200
     54 H20          5.7510     6.9830     6.8740 h1         1 6RB       0.052200
     55 H21          4.2630     6.6330     8.8180 h1         1 6RB      -0.002800
     56 H22          3.0010     6.0170     7.7410 h1         1 6RB      -0.002800
     57 H23          2.8150     8.3020     8.2540 ho         1 6RB       0.399000
     58 H24          8.3640     4.1840     9.4430 hn         1 6RB       0.191500
     59 H25          8.8890     1.7540    10.8240 h1         1 6RB       0.028200
     60 H26         10.0070     1.8630     9.4570 h1         1 6RB       0.028200
     61 H27         11.6820     3.6210     9.3470 ha         1 6RB       0.108500
     62 H28         13.0950     5.1840    10.6280 ha         1 6RB       0.103500
     63 H29         12.4590     5.8240    12.9220 ha         1 6RB       0.102000
     64 H30         10.4070     4.9050    13.9340 ha         1 6RB       0.103500
     65 H31          8.9910     3.3450    12.6530 ha         1 6RB       0.108500
@<TRIPOS>BOND
     1     1     2 1   
     2     1    36 1   
     3     1    37 1   
     4     1    38 1   
     5     2     3 1   
     6     3     4 ar  
     7     3     6 ar  
     8     4     5 ar  
     9     4    39 1   
    10     5    12 ar  
    11     5    40 1   
    12     6     7 ar  
    13     6    11 ar  
    14     7     8 ar  
    15     7    41 1   
    16     8     9 ar  
    17     8    42 1   
    18     9    10 ar  
    19     9    43 1   
    20    10    11 ar  
    21    10    44 1   
    22    11    12 ar  
    23    12    13 1   
    24    13    14 1   
    25    13    45 1   
    26    13    46 1   
    27    14    15 1   
    28    14    17 1   
    29    15    16 1   
    30    15    47 1   
    31    15    48 1   
    32    16    19 2   
    33    16    25 1   
    34    17    18 1   
    35    17    49 1   
    36    17    50 1   
    37    18    19 1   
    38    18    51 1   
    39    18    52 1   
    40    19    20 1   
    41    20    21 1   
    42    20    24 1   
    43    21    22 1   
    44    21    53 1   
    45    21    54 1   
    46    22    23 1   
    47    22    55 1   
    48    22    56 1   
    49    23    57 1   
    50    24    25 2   
    51    25    26 1   
    52    26    27 2   
    53    26    28 1   
    54    28    29 1   
    55    28    58 1   
    56    29    30 1   
    57    29    59 1   
    58    29    60 1   
    59    30    31 ar  
    60    30    35 ar  
    61    31    32 ar  
    62    31    61 1   
    63    32    33 ar  
    64    32    62 1   
    65    33    34 ar  
    66    33    63 1   
    67    34    35 ar  
    68    34    64 1   
    69    35    65 1   
@<TRIPOS>SUBSTRUCTURE
     1 6RB         1 TEMP              0 ****  ****    0 ROOT
