@<TRIPOS>MOLECULE
molecule
   65    69     1     0     0
SMALL
bcc


@<TRIPOS>ATOM
      1 CAA          0.0000     0.0000     0.0000 c3         1 6RB       0.128700
      2 OAX          1.4280     0.0000     0.0000 os         1 6RB      -0.327900
      3 CBB          2.0450     0.0000     1.2110 ca         1 6RB       0.158100
      4 CAL          1.3050    -0.0070     2.3590 ca         1 6RB      -0.241000
      5 CAK          1.9220    -0.0120     3.6080 ca         1 6RB      -0.090000
      6 CBG          3.4520    -0.0000     1.2900 ca         1 6RB      -0.054000
      7 CAN          4.2480     0.0010     0.1340 ca         1 6RB      -0.097000
      8 CAH          5.6040     0.0010     0.2500 ca         1 6RB      -0.139000
      9 CAG          6.2180    -0.0010     1.5000 ca         1 6RB      -0.117000
     10 CAM          5.4780    -0.0020     2.6430 ca         1 6RB      -0.114000
     11 CBF          4.0750    -0.0010     2.5630 ca         1 6RB       0.012000
     12 CBA          3.2780    -0.0130     3.7210 ca         1 6RB      -0.109300
     13 CAT          3.9230    -0.0190     5.0830 c3         1 6RB       0.216100
     14 NBH          4.3500     1.3440     5.4290 n3         1 6RB      -0.737600
     15 CAU          5.2040     1.3410     6.6300 c3         1 6RB       0.249100
     16 CBD          5.5050     2.7680     6.9950 cc         1 6RB      -0.217600
     17 CAQ          3.1910     2.2320     5.5950 c3         1 6RB       0.159800
     18 CAP          3.6510     3.6970     5.5670 c3         1 6RB      -0.004100
     19 CBE          4.8120     3.8340     6.5180 cd         1 6RB      -0.134600
     20 NBI          5.3590     4.9350     7.0520 na         1 6RB       0.157400
     21 CAR          4.9090     6.3060     6.7940 c3         1 6RB       0.062300
     22 CAO          3.8430     6.6940     7.8210 c3         1 6RB       0.119400
     23 OAC          3.4050     8.0310     7.5700 oh         1 6RB      -0.609800
     24 NAV          6.3380     4.6110     7.8250 nd         1 6RB      -0.526800
     25 CBC          6.4900     3.2970     7.8420 cc         1 6RB       0.271800
     26 CAY          7.5000     2.5360     8.6050 c          1 6RB       0.607600
     27 OAB          7.5290     1.3230     8.5320 o          1 6RB      -0.613100
     28 NAW          8.3880     3.1860     9.3830 ns         1 6RB      -0.572900
     29 CAS          9.3890     2.4310    10.1410 c3         1 6RB       0.161300
     30 CAZ         10.2520     3.3860    10.9240 ca         1 6RB      -0.117300
     31 CAI         11.4020     3.9030    10.3550 ca         1 6RB      -0.111000
     32 CAE         12.1940     4.7790    11.0730 ca         1 6RB      -0.131500
     33 CAD         11.8370     5.1380    12.3590 ca         1 6RB      -0.120000
     34 CAF         10.6880     4.6220    12.9270 ca         1 6RB      -0.131500
     35 CAJ          9.8920     3.7490    12.2080 ca         1 6RB      -0.111000
     36 H1          -0.3610     0.0030    -1.0210 h1         1 6RB       0.042033
     37 H2          -0.3610    -0.8860     0.5080 h1         1 6RB       0.042033
     38 H3          -0.3610     0.8830     0.5130 h1         1 6RB       0.042033
     39 H4           0.2230    -0.0070     2.2980 ha         1 6RB       0.132000
     40 H5           1.3120    -0.0180     4.5030 ha         1 6RB       0.126000
     41 H6           3.7850     0.0020    -0.8450 ha         1 6RB       0.143000
     42 H7           6.2160     0.0020    -0.6450 ha         1 6RB       0.128000
     43 H8           7.3000    -0.0000     1.5640 ha         1 6RB       0.129000
     44 H9           5.9680    -0.0030     3.6100 ha         1 6RB       0.147000
     45 H10          3.2110    -0.3720     5.8190 h1         1 6RB       0.042700
     46 H11          4.7850    -0.6750     5.0710 h1         1 6RB       0.042700
     47 H13          4.6480     0.8910     7.4430 h1         1 6RB       0.061700
     48 H14          6.1360     0.8470     6.3850 h1         1 6RB       0.061700
     49 H15          2.5220     2.0730     4.7580 h1         1 6RB       0.047200
     50 H16          2.7530     2.0350     6.5660 h1         1 6RB       0.047200
     51 H17          3.9980     3.9280     4.5670 hc         1 6RB       0.062700
     52 H18          2.8390     4.3180     5.9250 hc         1 6RB       0.062700
     53 H19          4.4900     6.3670     5.7970 h1         1 6RB       0.084200
     54 H20          5.7510     6.9830     6.8740 h1         1 6RB       0.084200
     55 H21          4.2630     6.6330     8.8180 h1         1 6RB       0.036200
     56 H22          3.0010     6.0170     7.7410 h1         1 6RB       0.036200
     57 H23          2.8150     8.3020     8.2540 ho         1 6RB       0.414000
     58 H24          8.3640     4.1840     9.4430 hn         1 6RB       0.331500
     59 H25          8.8890     1.7540    10.8240 h1         1 6RB       0.058200
     60 H26         10.0070     1.8630     9.4570 h1         1 6RB       0.058200
     61 H27         11.6820     3.6210     9.3470 ha         1 6RB       0.135500
     62 H28         13.0950     5.1840    10.6280 ha         1 6RB       0.131500
     63 H29         12.4590     5.8240    12.9220 ha         1 6RB       0.130000
     64 H30         10.4070     4.9050    13.9340 ha         1 6RB       0.131500
     65 H31          8.9910     3.3450    12.6530 ha         1 6RB       0.135500
@<TRIPOS>BOND
     1    31    32 ar
     2    31    30 ar
     3    32    33 ar
     4    29    30 1
     5    29    28 1
     6    30    35 ar
     7    33    34 ar
     8    28    26 1
     9    35    34 ar
    10    27    26 2
    11    26    25 1
    12    25    24 2
    13    25    16 1
    14    24    20 1
    15    23    22 1
    16    22    21 1
    17    16    15 1
    18    16    19 2
    19    20    21 1
    20    20    19 1
    21    15    14 1
    22    19    18 1
    23    14    13 1
    24    14    17 1
    25    13    12 1
    26     5    12 ar
    27     5     4 ar
    28    18    17 1
    29    12    11 ar
    30     4     3 ar
    31    11     6 ar
    32    11    10 ar
    33     3     6 ar
    34     3     2 1
    35     1     2 1
    36     6     7 ar
    37    10     9 ar
    38     7     8 ar
    39     9     8 ar
    40     1    36 1
    41     1    37 1
    42     1    38 1
    43     4    39 1
    44     5    40 1
    45     7    41 1
    46     8    42 1
    47     9    43 1
    48    10    44 1
    49    13    45 1
    50    13    46 1
    51    15    47 1
    52    15    48 1
    53    17    49 1
    54    17    50 1
    55    18    51 1
    56    18    52 1
    57    21    53 1
    58    21    54 1
    59    22    55 1
    60    22    56 1
    61    23    57 1
    62    28    58 1
    63    29    59 1
    64    29    60 1
    65    31    61 1
    66    32    62 1
    67    33    63 1
    68    34    64 1
    69    35    65 1
@<TRIPOS>SUBSTRUCTURE
     1 6RB         1 TEMP              0 ****  ****    0 ROOT
