@<TRIPOS>MOLECULE
6RC
   63    68     1     0     0
SMALL
bcc


@<TRIPOS>ATOM
      1 CAZ          0.0000     0.0000     0.0000 c3         1 6RC       0.259700
      2 OAY          1.4290     0.0000     0.0000 os         1 6RC      -0.418600
      3 CAX          2.0110     0.0000     1.3060 c3         1 6RC       0.195400
      4 CAW          3.5360    -0.0000     1.1840 c3         1 6RC      -0.017700
      5 NAS          4.1320     0.0010     2.5230 na         1 6RC       0.500400
      6 CAT          5.0250    -0.8940     2.9900 cc         1 6RC      -0.226300
      7 NAV          3.8770     0.9350     3.5340 nc         1 6RC      -0.649800
      8 CAU          4.5860     0.6160     4.5840 cd         1 6RC       0.411200
      9 CAR          5.3290    -0.5410     4.2760 cd         1 6RC      -0.263300
     10 CAF          6.2690    -1.2430     5.1770 cd         1 6RC      -0.375600
     11 CAE          7.5960    -1.2890     4.8790 cc         1 6RC       0.488200
     12 NAD          8.4610    -1.9170     5.6780 nc         1 6RC      -0.725000
     13 CAC          8.0650    -2.5160     6.7840 cd         1 6RC       0.603200
     14 NAQ          8.9870    -3.1600     7.5950 nh         1 6RC      -0.405300
     15 CAP         10.4300    -3.0760     7.3160 c3         1 6RC       0.091300
     16 CAO         11.0060    -4.4970     7.3130 c3         1 6RC       0.200900
     17 OAN         10.6310    -5.1580     8.5240 os         1 6RC      -0.408600
     18 CAM          9.2200    -5.3260     8.6870 c3         1 6RC       0.200900
     19 CAL          8.5530    -3.9430     8.7620 c3         1 6RC       0.091300
     20 CAB          6.6940    -2.4980     7.1420 cd         1 6RC      -0.413600
     21 NAI          6.0200    -2.9990     8.1630 nc         1 6RC      -0.224600
     22 NAA          5.8050    -1.8490     6.3240 na         1 6RC       0.696700
     23 CAG          4.5730    -1.9740     6.8900 cd         1 6RC      -0.410100
     24 CAH          4.7280    -2.6970     8.0240 cc         1 6RC       0.026400
     25 CAJ          3.6270    -3.0840     8.9780 c3         1 6RC       0.308600
     26 OAK          2.3820    -2.5680     8.5010 os         1 6RC      -0.433100
     27 CBA          1.2810    -2.8300     9.2490 ca         1 6RC       0.635600
     28 CBE          0.0370    -2.3520     8.8230 ca         1 6RC      -0.239300
     29 CBD         -1.0800    -2.6110     9.5610 ca         1 6RC      -0.019000
     30 CBC         -0.9380    -3.3620    10.7440 ca         1 6RC      -0.188300
     31 CBI         -2.0450    -3.6660    11.5520 ca         1 6RC      -0.067000
     32 CBH         -1.8680    -4.3950    12.6890 ca         1 6RC      -0.115000
     33 CBG         -0.6030    -4.8430    13.0630 ca         1 6RC      -0.080000
     34 CBJ          0.4920    -4.5660    12.3030 ca         1 6RC      -0.157300
     35 CBB          0.3490    -3.8170    11.1220 ca         1 6RC       0.420600
     36 NBF          1.4080    -3.5310    10.3560 nb         1 6RC      -0.667000
     37 H1          -0.3610    -0.0000    -1.0210 h1         1 6RC      -0.010633
     38 H2          -0.3610    -0.8840     0.5110 h1         1 6RC      -0.010633
     39 H3          -0.3610     0.8850     0.5100 h1         1 6RC      -0.010633
     40 H4           1.6910     0.8850     1.8440 h1         1 6RC       0.007200
     41 H5           1.6910    -0.8850     1.8440 h1         1 6RC       0.007200
     42 H6           3.8550    -0.8850     0.6470 h1         1 6RC       0.040200
     43 H7           3.8550     0.8840     0.6460 h1         1 6RC       0.040200
     44 H8           5.4270    -1.7410     2.4470 h4         1 6RC       0.151000
     45 H9           4.6010     1.1500     5.5260 h4         1 6RC       0.010100
     46 H10          7.9570    -0.8080     3.9780 h4         1 6RC      -0.009900
     47 H11         10.5880    -2.6180     6.3470 h1         1 6RC       0.055700
     48 H12         10.9150    -2.4880     8.0860 h1         1 6RC       0.055700
     49 H13         12.0860    -4.4480     7.2480 h1         1 6RC       0.014450
     50 H14         10.6110    -5.0440     6.4660 h1         1 6RC       0.014450
     51 H15          8.8220    -5.8730     7.8410 h1         1 6RC       0.014450
     52 H16          9.0250    -5.8720     9.6020 h1         1 6RC       0.014450
     53 H17          8.8590    -3.4410     9.6720 h1         1 6RC       0.055700
     54 H18          7.4760    -4.0570     8.7450 h1         1 6RC       0.055700
     55 H19          3.6430    -1.5780     6.5010 h4         1 6RC       0.176000
     56 H20          3.8360    -2.6720     9.9580 h1         1 6RC       0.022200
     57 H21          3.5690    -4.1630     9.0440 h1         1 6RC       0.022200
     58 H22         -0.0300    -1.7290     7.9390 ha         1 6RC       0.122000
     59 H23         -2.0510    -2.2480     9.2460 ha         1 6RC       0.111000
     60 H24         -3.0340    -3.3240    11.2730 ha         1 6RC       0.105000
     61 H25         -2.7230    -4.6300    13.3120 ha         1 6RC       0.103000
     62 H26         -0.4890    -5.4210    13.9720 ha         1 6RC       0.102000
     63 H27          1.4690    -4.9210    12.6070 ha         1 6RC       0.118000
@<TRIPOS>BOND
     1     1     2 1   
     2     1    37 1   
     3     1    38 1   
     4     1    39 1   
     5     2     3 1   
     6     3     4 1   
     7     3    40 1   
     8     3    41 1   
     9     4     5 1   
    10     4    42 1   
    11     4    43 1   
    12     5     6 1   
    13     5     7 1   
    14     6     9 2   
    15     6    44 1   
    16     7     8 2   
    17     8     9 1   
    18     8    45 1   
    19     9    10 1   
    20    10    11 2   
    21    10    22 1   
    22    11    12 1   
    23    11    46 1   
    24    12    13 2   
    25    13    14 1   
    26    13    20 1   
    27    14    15 1   
    28    14    19 1   
    29    15    16 1   
    30    15    47 1   
    31    15    48 1   
    32    16    17 1   
    33    16    49 1   
    34    16    50 1   
    35    17    18 1   
    36    18    19 1   
    37    18    51 1   
    38    18    52 1   
    39    19    53 1   
    40    19    54 1   
    41    20    21 2   
    42    20    22 1   
    43    21    24 1   
    44    22    23 1   
    45    23    24 2   
    46    23    55 1   
    47    24    25 1   
    48    25    26 1   
    49    25    56 1   
    50    25    57 1   
    51    26    27 1   
    52    27    28 ar  
    53    27    36 ar  
    54    28    29 ar  
    55    28    58 1   
    56    29    30 ar  
    57    29    59 1   
    58    30    31 ar  
    59    30    35 ar  
    60    31    32 ar  
    61    31    60 1   
    62    32    33 ar  
    63    32    61 1   
    64    33    34 ar  
    65    33    62 1   
    66    34    35 ar  
    67    34    63 1   
    68    35    36 ar  
@<TRIPOS>SUBSTRUCTURE
     1 6RC         1 TEMP              0 ****  ****    0 ROOT
