@<TRIPOS>MOLECULE
molecule
   61    66     1     0     0
SMALL
bcc


@<TRIPOS>ATOM
      1 CAH          0.0000     0.0000     0.0000 ca         1 6RD      -0.105000
      2 CAG          1.3940     0.0000     0.0000 ca         1 6RD      -0.131000
      3 CAJ          2.0950     0.0000     1.1670 ca         1 6RD      -0.108000
      4 CBC          1.4050     0.0000     2.3920 ca         1 6RD      -0.038000
      5 CAI          2.0940     0.0020     3.6170 ca         1 6RD      -0.116000
      6 CAC          1.3930     0.0020     4.7830 ca         1 6RD      -0.126000
      7 CAE         -0.0000     0.0010     4.7830 ca         1 6RD      -0.123000
      8 CAL         -0.7020    -0.0000     3.6150 ca         1 6RD      -0.118000
      9 CBE         -0.0120     0.0000     2.3920 ca         1 6RD      -0.025000
     10 CAX         -0.7010    -0.0000     1.1660 ca         1 6RD      -0.105300
     11 CAQ         -2.2070     0.0060     1.1450 c3         1 6RD       0.160300
     12 NAU         -2.6940     1.3680     1.3810 ns         1 6RD      -0.573900
     13 CAW         -4.0180     1.6150     1.4050 c          1 6RD       0.608600
     14 OAB         -4.8090     0.7090     1.2310 o          1 6RD      -0.614100
     15 CBA         -4.5090     2.9880     1.6430 cc         1 6RD       0.268800
     16 CAZ         -5.8480     3.4020     1.6960 cc         1 6RD      -0.215600
     17 CAS         -7.1150     2.6110     1.5300 c3         1 6RD       0.250100
     18 NAT         -3.7710     4.0660     1.8520 nd         1 6RD      -0.527800
     19 NBH         -4.5270     5.0960     2.0230 na         1 6RD       0.159400
     20 CAA         -4.0470     6.4570     2.2770 c3         1 6RD       0.050600
     21 CBB         -5.8150     4.7390     1.9370 cd         1 6RD      -0.134600
     22 CAO         -7.0610     5.5770     2.0720 c3         1 6RD       0.002900
     23 CAP         -8.2460     4.6260     2.2900 c3         1 6RD       0.166800
     24 NBG         -8.2200     3.5570     1.2880 n3         1 6RD      -0.733600
     25 CAR         -9.5090     2.8560     1.2300 c3         1 6RD       0.244000
     26 CAY        -10.5740     3.8040     0.7410 cc         1 6RD      -0.147400
     27 CBF        -10.8340     4.1800    -0.6510 ca         1 6RD      -0.086800
     28 CAM        -10.2540     3.8360    -1.8740 ca         1 6RD      -0.067000
     29 CAF        -10.7410     4.3750    -3.0310 ca         1 6RD      -0.161000
     30 CAD        -11.8070     5.2640    -3.0010 ca         1 6RD      -0.107000
     31 CAK        -12.3930     5.6180    -1.8060 ca         1 6RD      -0.148000
     32 CBD        -11.9150     5.0810    -0.6150 ca         1 6RD      -0.042200
     33 NAV        -12.2740     5.2310     0.7050 na         1 6RD      -0.182400
     34 CAN        -11.4690     4.4600     1.4980 cd         1 6RD      -0.107100
     35 HAI         -0.5330    -0.0000    -0.9430 ha         1 6RD       0.134000
     36 HAH          1.9280     0.0000    -0.9430 ha         1 6RD       0.131000
     37 HAK          3.1780     0.0000     1.1520 ha         1 6RD       0.133000
     38 HAJ          3.1770     0.0030     3.6320 ha         1 6RD       0.132000
     39 HAD          1.9260     0.0030     5.7260 ha         1 6RD       0.128000
     40 HAF         -0.5340     0.0010     5.7260 ha         1 6RD       0.130000
     41 HAM         -1.7850    -0.0010     3.6310 ha         1 6RD       0.144000
     42 HAT         -2.5820    -0.6510     1.9210 h1         1 6RD       0.059200
     43 HAU         -2.5560    -0.3400     0.1800 h1         1 6RD       0.059200
     44 HBH         -2.0430     2.1190     1.4910 hn         1 6RD       0.333500
     45 HAX         -7.0100     1.9770     0.6580 h1         1 6RD       0.061700
     46 HAY         -7.3130     2.0850     2.4560 h1         1 6RD       0.061700
     47 HAB         -2.9640     6.4690     2.2500 h1         1 6RD       0.060367
     48 HAC         -4.3880     6.7840     3.2520 h1         1 6RD       0.060367
     49 HAA         -4.4350     7.1240     1.5160 h1         1 6RD       0.060367
     50 HAP         -7.2150     6.1510     1.1660 hc         1 6RD       0.056200
     51 HAQ         -6.9650     6.2420     2.9220 hc         1 6RD       0.056200
     52 HAS         -8.1790     4.1900     3.2790 h1         1 6RD       0.038700
     53 HAR         -9.1720     5.1800     2.1970 h1         1 6RD       0.038700
     54 HAV         -9.4340     2.0160     0.5500 h1         1 6RD       0.040200
     55 HAW         -9.7710     2.4990     2.2180 h1         1 6RD       0.040200
     56 HAN         -9.4220     3.1430    -1.9040 ha         1 6RD       0.138000
     57 HAG        -10.2910     4.1070    -3.9790 ha         1 6RD       0.128000
     58 HAE        -12.1820     5.6830    -3.9260 ha         1 6RD       0.128000
     59 HAL        -13.2240     6.3120    -1.7930 ha         1 6RD       0.123000
     60 HBI        -13.0180     5.8130     1.0360 hn         1 6RD       0.294700
     61 HAO        -11.5440     4.3870     2.5760 h4         1 6RD       0.162000
@<TRIPOS>BOND
     1    20    19 1
     2     3     2 ar
     3     3     4 ar
     4     5     4 ar
     5     5     6 ar
     6     2     1 ar
     7     4     9 ar
     8     6     7 ar
     9     1    10 ar
    10    18    19 1
    11    18    15 2
    12    19    21 1
    13     9    10 ar
    14     9     8 ar
    15     7     8 ar
    16    10    11 1
    17    12    11 1
    18    12    13 1
    19    15    13 1
    20    15    16 1
    21    21    22 1
    22    21    16 2
    23    13    14 2
    24    22    23 1
    25    16    17 1
    26    23    24 1
    27    17    24 1
    28    24    25 1
    29    28    29 ar
    30    28    27 ar
    31    29    30 ar
    32    25    26 1
    33    30    31 ar
    34    27    26 1
    35    27    32 ar
    36    26    34 2
    37    31    32 ar
    38    32    33 1
    39    34    33 1
    40     1    35 1
    41     2    36 1
    42     3    37 1
    43     5    38 1
    44     6    39 1
    45     7    40 1
    46     8    41 1
    47    11    42 1
    48    11    43 1
    49    12    44 1
    50    17    45 1
    51    17    46 1
    52    20    47 1
    53    20    48 1
    54    20    49 1
    55    22    50 1
    56    22    51 1
    57    23    52 1
    58    23    53 1
    59    25    54 1
    60    25    55 1
    61    28    56 1
    62    29    57 1
    63    30    58 1
    64    31    59 1
    65    33    60 1
    66    34    61 1
@<TRIPOS>SUBSTRUCTURE
     1 6RD         1 TEMP              0 ****  ****    0 ROOT
