@<TRIPOS>MOLECULE
molecule
   43    45     1     0     0
SMALL
bcc


@<TRIPOS>ATOM
      1 N1           0.0000     0.0000     0.0000 nb         1 6RE      -0.813000
      2 C2           1.3200     0.0000     0.0000 ca         1 6RE       0.772900
      3 N3           2.0270     0.0000     1.1110 nb         1 6RE      -0.783000
      4 C4           1.4260    -0.0010     2.2960 ca         1 6RE       0.493800
      5 C5           0.0230    -0.0020     2.3500 ca         1 6RE      -0.213200
      6 C6          -0.6880    -0.0010     1.1370 ca         1 6RE       0.799200
      7 N6          -2.0720    -0.0010     1.1280 nv         1 6RE      -0.950500
      8 N7          -0.3270    -0.0030     3.6590 nc         1 6RE      -0.552100
      9 C8           0.7470    -0.0030     4.3940 cd         1 6RE       0.398700
     10 N9           1.8550    -0.0020     3.5990 na         1 6RE      -0.266000
     11 C1'          3.2470    -0.0030     4.0540 c3         1 6RE       0.274800
     12 C2'          3.8050     1.4430     4.1050 c3         1 6RE       0.105100
     13 O2'          4.3240     1.8340     2.8320 oh         1 6RE      -0.536800
     14 C3'          4.9400     1.3160     5.1490 c3         1 6RE       0.092100
     15 O3'          6.2030     1.1540     4.4990 oh         1 6RE      -0.553800
     16 C4'          4.5790     0.0480     5.9480 c3         1 6RE       0.124100
     17 O4'          3.3340    -0.4450     5.4260 os         1 6RE      -0.450600
     18 C5'          4.4240     0.3930     7.4300 c3         1 6RE      -0.094400
     19 C6'          4.1900    -0.8890     8.2310 c3         1 6RE      -0.010700
     20 N7'          4.0410    -0.5590     9.6500 nu         1 6RE      -0.313100
     21 C8'          3.8220    -1.5520    10.5650 c2         1 6RE       0.429700
     22 N9'          3.6860    -1.2510    11.8550 nv         1 6RE      -0.415200
     23 N10          3.7420    -2.8200    10.1640 nz         1 6RE      -0.769600
     24 H2           1.8210    -0.0130    -0.9600 h5         1 6RE       0.082100
     25 HN6         -2.5670     0.0830     0.2620 hn         1 6RE       0.462300
     26 HN6A        -2.5790    -0.1030     1.9850 hn         1 6RE       0.462300
     27 H8           0.7590    -0.0040     5.4770 h5         1 6RE       0.062800
     28 H1'          3.8630    -0.6240     3.4160 h2         1 6RE       0.128700
     29 H2'          3.0460     2.1350     4.4480 h1         1 6RE       0.066700
     30 HO2'         4.2280     2.7660     2.7260 ho         1 6RE       0.423000
     31 H3'          4.9510     2.1810     5.8010 h1         1 6RE       0.049700
     32 HO3'         6.8070     1.8040     4.8180 ho         1 6RE       0.420000
     33 H4'          5.3520    -0.6990     5.8180 h1         1 6RE       0.085700
     34 H5'          5.3250     0.8800     7.7830 hc         1 6RE       0.084200
     35 H5'A         3.5800     1.0590     7.5590 hc         1 6RE       0.084200
     36 H6'A         3.2890    -1.3760     7.8770 h1         1 6RE       0.090700
     37 H6'          5.0340    -1.5550     8.1020 h1         1 6RE       0.090700
     38 HN7'         4.1040     0.3940     9.9520 hn         1 6RE       0.370700
     39 HN9'         3.5260    -1.9780    12.5250 hn         1 6RE       0.365200
     40 HN9A         2.9320    -2.9370     9.5880 hn         1 6RE       0.512133
     41 HN9B         4.5610    -3.0560     9.6400 hn         1 6RE       0.512133
     42 HN9C         3.7450    -0.2990    12.1560 hn         1 6RE       0.365200
     43 H103         3.6720    -3.4180    10.9630 hn         1 6RE       0.512133
@<TRIPOS>BOND
     1     7     6 1   
     2     6     5 ar  
     3     6     1 ar  
     4     8     5 1   
     5     8     9 2   
     6     5     4 ar  
     7     1     2 ar  
     8     9    10 1   
     9     4    10 1   
    10     4     3 ar  
    11     2     3 ar  
    12    10    11 1   
    13    22    21 1   
    14    21    20 2   
    15    21    23 1   
    16    11    12 1   
    17    11    17 1   
    18    12    13 1   
    19    12    14 1   
    20    18    19 1   
    21    18    16 1   
    22    20    19 1   
    23    17    16 1   
    24    16    14 1   
    25    14    15 1   
    26     2    24 1   
    27     7    25 1   
    28     7    26 1   
    29     9    27 1   
    30    11    28 1   
    31    12    29 1   
    32    13    30 1   
    33    14    31 1   
    34    15    32 1   
    35    16    33 1   
    36    18    34 1   
    37    18    35 1   
    38    19    36 1   
    39    19    37 1   
    40    20    38 1   
    41    22    39 1   
    42    23    40 1   
    43    23    41 1   
    44    22    42 1   
    45    43    23 1   
@<TRIPOS>SUBSTRUCTURE
     1 6RE         1 TEMP              0 ****  ****    0 ROOT
