@<TRIPOS>MOLECULE
6RF
   62    66     1     0     0
SMALL
bcc


@<TRIPOS>ATOM
      1 C23          0.0000     0.0000     0.0000 c3         1 6RF      -0.027500
      2 C24          1.5330     0.0000     0.0000 c3         1 6RF       0.109800
      3 N7           2.0190     0.0000     1.3860 n7         1 6RF      -0.542200
      4 C25          1.6110     1.2210     2.0940 c3         1 6RF       0.109800
      5 C26          0.0820     1.2700     2.1800 c3         1 6RF      -0.027500
      6 N6          -0.4670     1.1250     0.8230 n          1 6RF      -0.117800
      7 C13         -1.3750     2.0000     0.3470 c          1 6RF       0.617700
      8 O1          -1.8190     1.8650    -0.7770 o          1 6RF      -0.625100
      9 C9          -1.8310     3.1220     1.1900 ca         1 6RF      -0.086600
     10 C8          -2.9400     2.9910     2.0350 cp         1 6RF      -0.092300
     11 C12         -3.6820     1.7110     2.1010 cp         1 6RF      -0.078000
     12 C14         -3.0600     0.5640     2.5950 ca         1 6RF      -0.102500
     13 C15         -3.7580    -0.6250     2.6540 ca         1 6RF      -0.080500
     14 C16         -5.0710    -0.6810     2.2240 ca         1 6RF      -0.118000
     15 C17         -5.6940     0.4530     1.7320 ca         1 6RF      -0.080500
     16 C18         -5.0090     1.6490     1.6740 ca         1 6RF      -0.102500
     17 C2          -1.1570     4.3700     1.1760 ca         1 6RF      -0.074300
     18 C3          -0.0380     4.5830     0.3630 ca         1 6RF      -0.131000
     19 C4           0.5850     5.7980     0.3750 ca         1 6RF       0.106900
     20 F1           1.6660     6.0020    -0.4100 f          1 6RF      -0.124900
     21 C5           0.1190     6.8300     1.1880 ca         1 6RF      -0.136000
     22 C6          -0.9660     6.6560     1.9910 ca         1 6RF      -0.119300
     23 C1          -1.6340     5.4180     2.0040 ca         1 6RF       0.364600
     24 N1          -2.7030     5.2260     2.7840 nb         1 6RF      -0.542000
     25 C7          -3.3390     4.0840     2.8210 ca         1 6RF       0.366600
     26 C10         -4.5330     3.9390     3.7290 c3         1 6RF       0.082200
     27 C11         -5.7280     4.6750     3.1220 c3         1 6RF      -0.034100
     28 N2          -4.2220     4.5120     5.0410 nu         1 6RF      -0.469900
     29 C19         -4.8930     4.0720     6.1630 ca         1 6RF       0.591200
     30 N4          -5.8270     3.1290     6.0670 nb         1 6RF      -0.795000
     31 C22         -6.4740     2.7020     7.1330 ca         1 6RF       0.738900
     32 N3          -6.2380     3.1780     8.3390 nb         1 6RF      -0.738000
     33 C21         -5.3230     4.1240     8.5370 ca         1 6RF       0.593200
     34 N5          -5.0840     4.6150     9.8040 nv         1 6RF      -0.490500
     35 C20         -4.6000     4.6090     7.4320 ca         1 6RF      -0.397600
     36 C27         -3.6010     5.6230     7.5910 cg         1 6RF       0.259800
     37 N8          -2.8040     6.4260     7.6980 n1         1 6RF      -0.411800
     38 H1          -0.5190     0.2300    -0.9230 h1         1 6RF       0.045700
     39 H2          -0.2500    -1.0220     0.2590 h1         1 6RF       0.045700
     40 H3           1.6520    -0.6800    -0.8340 h1         1 6RF       0.028950
     41 H4           1.7070     0.8270    -0.6780 h1         1 6RF       0.028950
     42 H5           1.9310    -0.9680     1.6260 hn         1 6RF       0.278800
     43 H7           1.5090     1.1710     3.1710 h1         1 6RF       0.028950
     44 H8           2.3350     2.0260     2.0510 h1         1 6RF       0.028950
     45 H9           0.0910     0.5040     2.9460 h1         1 6RF       0.045700
     46 H10         -0.2330     2.2380     2.5510 h1         1 6RF       0.045700
     47 H11         -2.1390     1.0380     2.9120 ha         1 6RF       0.123000
     48 H12         -3.0900    -1.4030     3.0030 ha         1 6RF       0.109000
     49 H13         -5.7850    -1.3750     1.7960 ha         1 6RF       0.127000
     50 H14         -6.7420     0.1870     1.6640 ha         1 6RF       0.109000
     51 H15         -5.5360     2.5130     1.2860 ha         1 6RF       0.123000
     52 H16          0.6420     4.0130    -0.2590 ha         1 6RF       0.144000
     53 H17          0.4020     7.8760     1.1730 ha         1 6RF       0.124000
     54 H18         -1.3690     7.6140     2.2990 ha         1 6RF       0.123000
     55 H19         -4.7750     2.8890     3.8410 h1         1 6RF       0.081700
     56 H20         -6.5900     4.4880     3.7520 hc         1 6RF       0.028367
     57 H21         -5.3270     5.6480     2.8630 hc         1 6RF       0.028367
     58 H22         -5.8060     4.1980     2.1530 hc         1 6RF       0.028367
     59 H23         -3.7730     5.3580     5.3320 hn         1 6RF       0.313800
     60 H24         -7.1470     1.9380     6.7620 h5         1 6RF       0.003100
     61 H25         -5.5330     4.0910    10.5290 hn         1 6RF       0.282300
     62 H26         -4.4090     5.3310     9.9860 hn         1 6RF       0.282300
@<TRIPOS>BOND
     1     1     2 1   
     2     1     6 1   
     3     1    38 1   
     4     1    39 1   
     5     2     3 1   
     6     2    40 1   
     7     2    41 1   
     8     3     4 1   
     9     3    42 1   
    10     4     5 1   
    11     4    43 1   
    12     4    44 1   
    13     5     6 1   
    14     5    45 1   
    15     5    46 1   
    16     6     7 1   
    17     7     8 2   
    18     7     9 1   
    19     9    10 ar  
    20     9    17 ar  
    21    10    11 1   
    22    10    25 ar  
    23    11    12 ar  
    24    11    16 ar  
    25    12    13 ar  
    26    12    47 1   
    27    13    14 ar  
    28    13    48 1   
    29    14    15 ar  
    30    14    49 1   
    31    15    16 ar  
    32    15    50 1   
    33    16    51 1   
    34    17    18 ar  
    35    17    23 ar  
    36    18    19 ar  
    37    18    52 1   
    38    19    20 1   
    39    19    21 ar  
    40    21    22 ar  
    41    21    53 1   
    42    22    23 ar  
    43    22    54 1   
    44    23    24 ar  
    45    24    25 ar  
    46    25    26 1   
    47    26    27 1   
    48    26    28 1   
    49    26    55 1   
    50    27    56 1   
    51    27    57 1   
    52    27    58 1   
    53    28    29 1   
    54    28    59 1   
    55    29    30 ar  
    56    29    35 ar  
    57    30    31 ar  
    58    31    32 ar  
    59    31    60 1   
    60    32    33 ar  
    61    33    34 1   
    62    33    35 ar  
    63    34    61 1   
    64    34    62 1   
    65    35    36 1   
    66    36    37 3   
@<TRIPOS>SUBSTRUCTURE
     1 6RF         1 TEMP              0 ****  ****    0 ROOT
