@<TRIPOS>MOLECULE
molecule
   62    66     1     0     0
SMALL
bcc


@<TRIPOS>ATOM
      1 C23          0.0000     0.0000     0.0000 c3         1 6RF       0.041000
      2 C24          1.5330     0.0000     0.0000 c3         1 6RF       0.155300
      3 N7           2.0190     0.0000     1.3860 n7         1 6RF      -0.855200
      4 C25          1.6110     1.2210     2.0940 c3         1 6RF       0.155300
      5 C26          0.0820     1.2700     2.1800 c3         1 6RF       0.041000
      6 N6          -0.4670     1.1250     0.8230 n          1 6RF      -0.465800
      7 C13         -1.3750     2.0000     0.3470 c          1 6RF       0.685700
      8 O1          -1.8190     1.8650    -0.7770 o          1 6RF      -0.584100
      9 C9          -1.8310     3.1220     1.1900 ca         1 6RF      -0.072600
     10 C8          -2.9400     2.9910     2.0350 cp         1 6RF      -0.118300
     11 C12         -3.6820     1.7110     2.1010 cp         1 6RF      -0.082000
     12 C14         -3.0600     0.5640     2.5950 ca         1 6RF      -0.113000
     13 C15         -3.7580    -0.6250     2.6540 ca         1 6RF      -0.116500
     14 C16         -5.0710    -0.6810     2.2240 ca         1 6RF      -0.136000
     15 C17         -5.6940     0.4530     1.7320 ca         1 6RF      -0.116500
     16 C18         -5.0090     1.6490     1.6740 ca         1 6RF      -0.113000
     17 C2          -1.1570     4.3700     1.1760 ca         1 6RF      -0.092300
     18 C3          -0.0380     4.5830     0.3630 ca         1 6RF      -0.158000
     19 C4           0.5850     5.7980     0.3750 ca         1 6RF       0.129900
     20 F1           1.6660     6.0020    -0.4100 f          1 6RF      -0.135900
     21 C5           0.1190     6.8300     1.1880 ca         1 6RF      -0.165000
     22 C6          -0.9660     6.6560     1.9910 ca         1 6RF      -0.145300
     23 C1          -1.6340     5.4180     2.0040 ca         1 6RF       0.415600
     24 N1          -2.7030     5.2260     2.7840 nb         1 6RF      -0.667000
     25 C7          -3.3390     4.0840     2.8210 ca         1 6RF       0.430600
     26 C10         -4.5330     3.9390     3.7290 c3         1 6RF       0.204200
     27 C11         -5.7280     4.6750     3.1220 c3         1 6RF      -0.115100
     28 N2          -4.2220     4.5120     5.0410 nu         1 6RF      -0.870900
     29 C19         -4.8930     4.0720     6.1630 ca         1 6RF       0.752200
     30 N4          -5.8270     3.1290     6.0670 nb         1 6RF      -0.869000
     31 C22         -6.4740     2.7020     7.1330 ca         1 6RF       0.773900
     32 N3          -6.2380     3.1780     8.3390 nb         1 6RF      -0.841000
     33 C21         -5.3230     4.1240     8.5370 ca         1 6RF       0.791200
     34 N5          -5.0840     4.6150     9.8040 nv         1 6RF      -0.983500
     35 C20         -4.6000     4.6090     7.4320 ca         1 6RF      -0.425600
     36 C27         -3.6010     5.6230     7.5910 cg         1 6RF       0.253800
     37 N8          -2.8040     6.4260     7.6980 n1         1 6RF      -0.389800
     38 H1          -0.5190     0.2300    -0.9230 h1         1 6RF       0.065450
     39 H2          -0.2500    -1.0220     0.2590 h1         1 6RF       0.065450
     40 H3           1.6520    -0.6800    -0.8340 h1         1 6RF       0.056200
     41 H4           1.7070     0.8270    -0.6780 h1         1 6RF       0.056200
     42 H5           1.9310    -0.9680     1.6260 hn         1 6RF       0.405800
     43 H7           1.5090     1.1710     3.1710 h1         1 6RF       0.056200
     44 H8           2.3350     2.0260     2.0510 h1         1 6RF       0.056200
     45 H9           0.0910     0.5040     2.9460 h1         1 6RF       0.065450
     46 H10         -0.2330     2.2380     2.5510 h1         1 6RF       0.065450
     47 H11         -2.1390     1.0380     2.9120 ha         1 6RF       0.143000
     48 H12         -3.0900    -1.4030     3.0030 ha         1 6RF       0.137000
     49 H13         -5.7850    -1.3750     1.7960 ha         1 6RF       0.152000
     50 H14         -6.7420     0.1870     1.6640 ha         1 6RF       0.137000
     51 H15         -5.5360     2.5130     1.2860 ha         1 6RF       0.143000
     52 H16          0.6420     4.0130    -0.2590 ha         1 6RF       0.169000
     53 H17          0.4020     7.8760     1.1730 ha         1 6RF       0.151000
     54 H18         -1.3690     7.6140     2.2990 ha         1 6RF       0.156000
     55 H19         -4.7750     2.8890     3.8410 h1         1 6RF       0.105700
     56 H20         -6.5900     4.4880     3.7520 hc         1 6RF       0.058700
     57 H21         -5.3270     5.6480     2.8630 hc         1 6RF       0.058700
     58 H22         -5.8060     4.1980     2.1530 hc         1 6RF       0.058700
     59 H23         -3.7730     5.3580     5.3320 hn         1 6RF       0.462800
     60 H24         -7.1470     1.9380     6.7620 h5         1 6RF       0.068100
     61 H25         -5.5330     4.0910    10.5290 hn         1 6RF       0.454800
     62 H26         -4.4090     5.3310     9.9860 hn         1 6RF       0.454800
@<TRIPOS>BOND
     1    20    19 1   
     2    19    21 ar  
     3    19    18 ar  
     4    21    22 ar  
     5    18    17 ar  
     6    22    23 ar  
     7    17    23 ar  
     8    17     9 ar  
     9     1     6 1   
    10     1     2 1   
    11     8     7 2   
    12    23    24 ar  
    13     6     7 1   
    14     6     5 1   
    15     7     9 1   
    16     5     4 1   
    17     9    10 ar  
    18     2     3 1   
    19     3     4 1   
    20    24    25 ar  
    21    10    25 ar  
    22    10    11 1   
    23    25    26 1   
    24    11    12 ar  
    25    11    16 ar  
    26    12    13 ar  
    27    16    15 ar  
    28    26    27 1   
    29    26    28 1   
    30    13    14 ar  
    31    28    29 1   
    32    29    30 ar  
    33    29    35 ar  
    34    15    14 ar  
    35    30    31 ar  
    36    37    36 3   
    37    36    35 1   
    38    35    33 ar  
    39    31    32 ar  
    40    33    32 ar  
    41    33    34 1   
    42     1    38 1   
    43     1    39 1   
    44     2    40 1   
    45     2    41 1   
    46     3    42 1   
    47     4    43 1   
    48     4    44 1   
    49     5    45 1   
    50     5    46 1   
    51    12    47 1   
    52    13    48 1   
    53    14    49 1   
    54    15    50 1   
    55    16    51 1   
    56    18    52 1   
    57    21    53 1   
    58    22    54 1   
    59    26    55 1   
    60    27    56 1   
    61    27    57 1   
    62    27    58 1   
    63    28    59 1   
    64    31    60 1   
    65    34    61 1   
    66    34    62 1   
@<TRIPOS>SUBSTRUCTURE
     1 6RF         1 TEMP              0 ****  ****    0 ROOT
