@<TRIPOS>MOLECULE
6RG
   46    49     1     0     0
SMALL
bcc


@<TRIPOS>ATOM
      1 N1           0.0000     0.0000     0.0000 nb         1 6RG      -0.738000
      2 C2           1.3320     0.0000     0.0000 cp         1 6RG       0.729500
      3 N3           2.0460     0.0000     1.1100 nb         1 6RG      -0.690000
      4 C4           1.4400     0.0030     2.3060 ca         1 6RG       0.497600
      5 C5           0.0230     0.0030     2.3550 ca         1 6RG      -0.374600
      6 C6          -0.6900     0.0020     1.1310 ca         1 6RG       0.579200
      7 CAB         -6.3950    -0.0000    -3.6140 ca         1 6RG      -0.100000
      8 CAC          3.3680    -0.0180    -3.7330 ca         1 6RG      -0.089000
      9 CAD         -6.0560    -1.1970    -3.0110 ca         1 6RG      -0.097000
     10 CAE         -6.0540     1.1980    -3.0150 ca         1 6RG      -0.097000
     11 CAF          1.9840    -0.0290    -3.7020 ca         1 6RG      -0.121500
     12 CAG          4.0900    -0.0050    -2.5540 ca         1 6RG      -0.121500
     13 CAH         -5.3770    -1.1960    -1.8070 ca         1 6RG      -0.094500
     14 CAI         -5.3800     1.1990    -1.8080 ca         1 6RG      -0.094500
     15 CAJ          1.3190    -0.0220    -2.4940 ca         1 6RG      -0.061000
     16 CAK          3.4350    -0.0040    -1.3390 ca         1 6RG      -0.061000
     17 CAL          0.0960     0.0080     4.7430 ca         1 6RG      -0.187000
     18 CAM         -0.6320     0.0070     3.5910 ca         1 6RG      -0.016000
     19 CAN          2.1680     0.0040     3.5010 ca         1 6RG      -0.278300
     20 CAO         -2.7880     0.0020    -0.1590 c3         1 6RG       0.161800
     21 CAP         -4.2950     0.0040     0.1060 c3         1 6RG       0.019900
     22 NAS         -2.0690     0.0030     1.1180 nu         1 6RG      -0.493900
     23 CAT          1.4940     0.0070     4.7060 ca         1 6RG       0.081600
     24 CAU         -5.0360     0.0020    -1.2070 ca         1 6RG      -0.092300
     25 CAV          2.0420    -0.0030    -1.3020 cp         1 6RG      -0.161500
     26 HNAA         1.7310     0.0090     6.7760 hn         1 6RG       0.267300
     27 HNAB         3.2150     0.0140     5.8800 hn         1 6RG       0.267300
     28 HAC          3.8860    -0.0220    -4.6840 ha         1 6RG       0.098000
     29 HAD         -6.3240    -2.1360    -3.4810 ha         1 6RG       0.103000
     30 HAE         -6.3220     2.1350    -3.4870 ha         1 6RG       0.103000
     31 HAF          1.4230    -0.0420    -4.6280 ha         1 6RG       0.101500
     32 HAG          5.1730    -0.0010    -2.5830 ha         1 6RG       0.101500
     33 HAH         -5.1090    -2.1340    -1.3350 ha         1 6RG       0.106000
     34 HAI         -5.1120     2.1380    -1.3380 ha         1 6RG       0.106000
     35 HAJ          0.2360    -0.0300    -2.4710 ha         1 6RG       0.123000
     36 HAK          4.0020     0.0060    -0.4170 ha         1 6RG       0.123000
     37 HAL         -0.4150     0.0100     5.6990 ha         1 6RG       0.108000
     38 HAM         -1.7150     0.0080     3.6330 ha         1 6RG       0.094000
     39 HAN          3.2420    -0.1370     3.4820 ha         1 6RG       0.128000
     40 HAO         -2.5220    -0.8840    -0.7230 h1         1 6RG       0.032200
     41 HAOA        -2.5200     0.8850    -0.7260 h1         1 6RG       0.032200
     42 HAP         -4.5630    -0.8800     0.6730 hc         1 6RG       0.019200
     43 HAPA        -4.5620     0.8890     0.6700 hc         1 6RG       0.019200
     44 HNAS        -2.5780    -0.0310     1.9790 hn         1 6RG       0.298800
     45 NAA          2.2140     0.0090     5.8990 nv         1 6RG      -0.433200
     46 HAB         -6.9260    -0.0020    -4.5590 ha         1 6RG       0.103000
@<TRIPOS>BOND
     1     1     2 ar  
     2     1     6 ar  
     3     2     3 ar  
     4     2    25 1   
     5     3     4 ar  
     6     4     5 ar  
     7     4    19 ar  
     8     5     6 ar  
     9     5    18 ar  
    10     6    22 1   
    11     7     9 ar  
    12     7    10 ar  
    13     7    46 1   
    14     8    11 ar  
    15     8    12 ar  
    16     8    28 1   
    17     9    13 ar  
    18     9    29 1   
    19    10    14 ar  
    20    10    30 1   
    21    11    15 ar  
    22    11    31 1   
    23    12    16 ar  
    24    12    32 1   
    25    13    24 ar  
    26    13    33 1   
    27    14    24 ar  
    28    14    34 1   
    29    15    25 ar  
    30    15    35 1   
    31    16    25 ar  
    32    16    36 1   
    33    17    18 ar  
    34    17    23 ar  
    35    17    37 1   
    36    18    38 1   
    37    19    23 ar  
    38    19    39 1   
    39    20    21 1   
    40    20    22 1   
    41    20    40 1   
    42    20    41 1   
    43    21    24 1   
    44    21    42 1   
    45    21    43 1   
    46    22    44 1   
    47    23    45 1   
    48    26    45 1   
    49    27    45 1   
@<TRIPOS>SUBSTRUCTURE
     1 6RG         1 TEMP              0 ****  ****    0 ROOT
