@<TRIPOS>MOLECULE
molecule
   46    49     1     0     0
SMALL
bcc


@<TRIPOS>ATOM
      1 N1           0.0000     0.0000     0.0000 nb         1 6RG      -0.841000
      2 C2           1.3320     0.0000     0.0000 cp         1 6RG       0.800500
      3 N3           2.0460     0.0000     1.1100 nb         1 6RG      -0.786000
      4 C4           1.4400     0.0030     2.3060 ca         1 6RG       0.527600
      5 C5           0.0230     0.0030     2.3550 ca         1 6RG      -0.374600
      6 C6          -0.6900     0.0020     1.1310 ca         1 6RG       0.762200
      7 CAB         -6.3950    -0.0000    -3.6140 ca         1 6RG      -0.127000
      8 CAC          3.3680    -0.0180    -3.7330 ca         1 6RG      -0.113000
      9 CAD         -6.0560    -1.1970    -3.0110 ca         1 6RG      -0.125000
     10 CAE         -6.0540     1.1980    -3.0150 ca         1 6RG      -0.125000
     11 CAF          1.9840    -0.0290    -3.7020 ca         1 6RG      -0.148000
     12 CAG          4.0900    -0.0050    -2.5540 ca         1 6RG      -0.148000
     13 CAH         -5.3770    -1.1960    -1.8070 ca         1 6RG      -0.121000
     14 CAI         -5.3800     1.1990    -1.8080 ca         1 6RG      -0.121000
     15 CAJ          1.3190    -0.0220    -2.4940 ca         1 6RG      -0.082500
     16 CAK          3.4350    -0.0040    -1.3390 ca         1 6RG      -0.082500
     17 CAL          0.0960     0.0080     4.7430 ca         1 6RG      -0.210000
     18 CAM         -0.6320     0.0070     3.5910 ca         1 6RG      -0.045000
     19 CAN          2.1680     0.0040     3.5010 ca         1 6RG      -0.292300
     20 CAO         -2.7880     0.0020    -0.1590 c3         1 6RG       0.241800
     21 CAP         -4.2950     0.0040     0.1060 c3         1 6RG      -0.055100
     22 NAS         -2.0690     0.0030     1.1180 nu         1 6RG      -0.904900
     23 CAT          1.4940     0.0070     4.7060 ca         1 6RG       0.233600
     24 CAU         -5.0360     0.0020    -1.2070 ca         1 6RG      -0.085300
     25 CAV          2.0420    -0.0030    -1.3020 cp         1 6RG      -0.143500
     26 HNAA         1.7310     0.0090     6.7760 hn         1 6RG       0.432300
     27 HNAB         3.2150     0.0140     5.8800 hn         1 6RG       0.432300
     28 HAC          3.8860    -0.0220    -4.6840 ha         1 6RG       0.126000
     29 HAD         -6.3240    -2.1360    -3.4810 ha         1 6RG       0.131000
     30 HAE         -6.3220     2.1350    -3.4870 ha         1 6RG       0.131000
     31 HAF          1.4230    -0.0420    -4.6280 ha         1 6RG       0.129500
     32 HAG          5.1730    -0.0010    -2.5830 ha         1 6RG       0.129500
     33 HAH         -5.1090    -2.1340    -1.3350 ha         1 6RG       0.131000
     34 HAI         -5.1120     2.1380    -1.3380 ha         1 6RG       0.131000
     35 HAJ          0.2360    -0.0300    -2.4710 ha         1 6RG       0.153000
     36 HAK          4.0020     0.0060    -0.4170 ha         1 6RG       0.153000
     37 HAL         -0.4150     0.0100     5.6990 ha         1 6RG       0.129000
     38 HAM         -1.7150     0.0080     3.6330 ha         1 6RG       0.120000
     39 HAN          3.2420    -0.1370     3.4820 ha         1 6RG       0.150000
     40 HAO         -2.5220    -0.8840    -0.7230 h1         1 6RG       0.059700
     41 HAOA        -2.5200     0.8850    -0.7260 h1         1 6RG       0.059700
     42 HAP         -4.5630    -0.8800     0.6730 hc         1 6RG       0.051200
     43 HAPA        -4.5620     0.8890     0.6700 hc         1 6RG       0.051200
     44 HNAS        -2.5780    -0.0310     1.9790 hn         1 6RG       0.446800
     45 NAA          2.2140     0.0090     5.8990 nv         1 6RG      -0.913200
     46 HAB         -6.9260    -0.0020    -4.5590 ha         1 6RG       0.130000
@<TRIPOS>BOND
     1     6     1 ar  
     2     1     2 ar  
     3     2     3 ar  
     4     2    25 1   
     5     4     3 ar  
     6     5     4 ar  
     7     4    19 ar  
     8    18     5 ar  
     9     6     5 ar  
    10    22     6 1   
    11    23    45 1   
    12    45    26 1   
    13    45    27 1   
    14     9     7 ar  
    15     7    10 ar  
    16     7    46 1   
    17    12     8 ar  
    18     8    11 ar  
    19     8    28 1   
    20    13     9 ar  
    21     9    29 1   
    22    14    10 ar  
    23    10    30 1   
    24    15    11 ar  
    25    11    31 1   
    26    16    12 ar  
    27    12    32 1   
    28    13    24 ar  
    29    13    33 1   
    30    24    14 ar  
    31    14    34 1   
    32    25    15 ar  
    33    15    35 1   
    34    16    25 ar  
    35    16    36 1   
    36    18    17 ar  
    37    17    23 ar  
    38    17    37 1   
    39    18    38 1   
    40    23    19 ar  
    41    19    39 1   
    42    21    20 1   
    43    20    22 1   
    44    20    40 1   
    45    20    41 1   
    46    21    24 1   
    47    21    42 1   
    48    21    43 1   
    49    22    44 1   
@<TRIPOS>SUBSTRUCTURE
     1 6RG         1 TEMP              0 ****  ****    0 ROOT
