@<TRIPOS>MOLECULE
molecule
   29    30     1     0     0
SMALL
bcc


@<TRIPOS>ATOM
      1 C11          0.0000     0.0000     0.0000 c3         1 6RH       0.022300
      2 C13          2.0400     0.4780    -1.3620 c3         1 6RH      -0.039400
      3 C14          3.5700     0.4780    -1.3620 c3         1 6RH      -0.239600
      4 C12          1.5310     0.0000     0.0000 c3         1 6RH      -0.104400
      5 C02         -1.4380     0.0000     4.6880 c          1 6RH       0.627000
      6 N03         -1.2300     1.3220     4.8830 ns         1 6RH      -0.478400
      7 C04         -0.7620     2.0990     3.8730 cc         1 6RH       0.476800
      8 N05         -0.4950     1.6160     2.6910 nc         1 6RH      -0.602100
      9 C06         -0.6730     0.3170     2.4160 cc         1 6RH       0.069800
     10 C07         -1.1470    -0.5430     3.4120 cd         1 6RH       0.200800
     11 N08         -1.2320    -1.7800     2.8690 nd         1 6RH      -0.662000
     12 C09         -0.8470    -1.7330     1.6270 cc         1 6RH       0.421400
     13 N10         -0.4880    -0.4590     1.3030 na         1 6RH      -0.145900
     14 P15          4.1770     1.0480    -2.9840 p5         1 6RH       1.047700
     15 O16          3.5860     0.2130    -4.0530 o          1 6RH      -0.916167
     16 O17          3.7500     2.5840    -3.2070 o          1 6RH      -0.916167
     17 O18          5.7820     0.9240    -3.0300 o          1 6RH      -0.916167
     18 H1          -0.3610     1.0040    -0.1880 h1         1 6RH       0.068700
     19 H2          -0.3610    -0.6650    -0.7750 h1         1 6RH       0.068700
     20 H3           1.6790    -0.1880    -2.1360 hc         1 6RH       0.049200
     21 H4           1.6790     1.4810    -1.5510 hc         1 6RH       0.049200
     22 H5           3.9310     1.1430    -0.5880 hc         1 6RH       0.019200
     23 H6           3.9310    -0.5260    -1.1740 hc         1 6RH       0.019200
     24 H7           1.8920    -1.0040     0.1890 hc         1 6RH       0.039200
     25 H8           1.8920     0.6660     0.7750 hc         1 6RH       0.039200
     26 H9          -0.6040     3.1550     4.0550 h5         1 6RH       0.054800
     27 H11         -0.8170    -2.5790     0.9520 h5         1 6RH       0.073100
     28 H14         -1.4230     1.7300     5.7760 hn         1 6RH       0.325500
     29 O01         -1.8580    -0.7060     5.5890 o          1 6RH      -0.650500
@<TRIPOS>BOND
     1    12    11 2
     2    12    13 1
     3    11    10 1
     4     1    13 1
     5     1     4 1
     6    13     9 1
     7    10     9 2
     8    10     5 1
     9     9     8 1
    10     3     2 1
    11     3    14 1
    12     2     4 1
    13    29     5 2
    14     5     6 1
    15     8     7 2
    16    15    14 1
    17     6     7 1
    18    14    16 1
    19    14    17 1
    20     1    18 1
    21     1    19 1
    22     2    20 1
    23     2    21 1
    24     3    22 1
    25     3    23 1
    26     4    24 1
    27     4    25 1
    28     7    26 1
    29    12    27 1
    30     6    28 1
@<TRIPOS>SUBSTRUCTURE
     1 6RH         1 TEMP              0 ****  ****    0 ROOT
