@<TRIPOS>MOLECULE
6RJ
   42    45     1     0     0
SMALL
bcc


@<TRIPOS>ATOM
      1 C4           0.0000     0.0000     0.0000 ca         1 6RJ      -0.024000
      2 C6           0.0080     0.0020     2.4020 ca         1 6RJ      -0.158500
      3 C13         -2.9590     4.2700     2.9640 cc         1 6RJ       0.397200
      4 C20          1.9870     2.3730    -1.1280 ca         1 6RJ      -0.196000
      5 C21          2.2370     3.5890    -1.7350 ca         1 6RJ      -0.064000
      6 C16         -0.7210     0.0060    -1.2380 cg         1 6RJ       0.222800
      7 C19          2.3300     1.1940    -1.7690 ca         1 6RJ       0.143100
      8 C26          4.7600    -0.0750    -4.6280 cc         1 6RJ      -0.318300
      9 C1           1.3930     0.0010     2.3980 ca         1 6RJ       0.029000
     10 C2           2.0880     0.0000     1.2050 ca         1 6RJ      -0.197000
     11 C3           1.4020     0.0000     0.0000 ca         1 6RJ       0.172100
     12 C5          -0.6910     0.0020     1.2140 ca         1 6RJ       0.040000
     13 S7          -0.8640     0.0030     3.9330 sy         1 6RJ       1.030200
     14 O8          -2.1490    -0.5400     3.6630 o          1 6RJ      -0.552800
     15 O9           0.0230    -0.5410     4.9010 o          1 6RJ      -0.552800
     16 N10         -1.1060     1.5860     4.3570 nu         1 6RJ      -0.423800
     17 C11         -1.9130     2.3970     3.5760 cd         1 6RJ       0.549300
     18 N12         -2.1670     3.6460     3.8170 nc         1 6RJ      -0.572000
     19 C14         -3.3970     3.5130     1.9580 cd         1 6RJ      -0.133400
     20 S15         -2.7250     1.8960     2.1580 ss         1 6RJ      -0.345300
     21 N17         -1.3010     0.0270    -2.2140 n1         1 6RJ      -0.350800
     22 O18          2.0830    -0.0020    -1.1740 os         1 6RJ      -0.218200
     23 C22          2.8260     3.6370    -2.9880 ca         1 6RJ      -0.067600
     24 C23          3.1680     2.4670    -3.6390 ca         1 6RJ      -0.113000
     25 C24          2.9290     1.2380    -3.0310 ca         1 6RJ       0.022000
     26 C25          3.4830    -0.2020    -4.0330 cd         1 6RJ      -0.238300
     27 N27          5.0890    -1.4960    -4.9140 na         1 6RJ       0.295400
     28 N28          3.9780    -2.1270    -4.4440 nc         1 6RJ      -0.480800
     29 C29          3.1820    -1.4760    -4.0060 cd         1 6RJ       0.396200
     30 Cl           3.3700     4.9350    -3.8940 cl         1 6RJ       0.005600
     31 H1          -3.5780     5.1540     3.0580 h4         1 6RJ       0.009100
     32 H3           2.1120     4.4240    -1.0560 ha         1 6RJ       0.114000
     33 H4           5.3000     0.8570    -4.7410 h4         1 6RJ       0.161000
     34 H5           2.3260    -0.0620     2.9450 ha         1 6RJ       0.156000
     35 H6           3.1090     0.2960     0.9940 ha         1 6RJ       0.135000
     36 H7          -1.7670     0.0610     1.1080 ha         1 6RJ       0.161000
     37 H8          -0.3880     2.2760     4.4480 hn         1 6RJ       0.347800
     38 H9          -4.1710     3.4790     1.2010 h4         1 6RJ       0.169000
     39 H10          3.3000     2.5730    -4.7090 ha         1 6RJ       0.135000
     40 H11          6.0580    -1.4870    -5.1630 hn         1 6RJ       0.192700
     41 H12          2.2290    -1.7470    -3.5670 h4         1 6RJ       0.001100
     42 H2           1.4680     2.4630    -0.1820 ha         1 6RJ       0.123000
@<TRIPOS>BOND
     1     1     6 1   
     2     1    11 ar  
     3     1    12 ar  
     4     2     9 ar  
     5     2    12 ar  
     6     2    13 1   
     7     3    18 1   
     8     3    19 2   
     9     3    31 1   
    10     4     5 ar  
    11     4     7 ar  
    12     4    42 1   
    13     5    23 ar  
    14     5    32 1   
    15     6    21 3   
    16     7    22 1   
    17     7    25 ar  
    18     8    26 2   
    19     8    27 1   
    20     8    33 1   
    21     9    10 ar  
    22     9    34 1   
    23    10    11 ar  
    24    10    35 1   
    25    11    22 1   
    26    12    36 1   
    27    13    14 2   
    28    13    15 2   
    29    13    16 1   
    30    16    17 1   
    31    16    37 1   
    32    17    18 2   
    33    17    20 1   
    34    19    20 1   
    35    19    38 1   
    36    23    24 ar  
    37    23    30 1   
    38    24    25 ar  
    39    24    39 1   
    40    25    26 1   
    41    26    29 1   
    42    27    28 1   
    43    27    40 1   
    44    28    29 2   
    45    29    41 1   
@<TRIPOS>SUBSTRUCTURE
     1 6RJ         1 TEMP              0 ****  ****    0 ROOT
