@<TRIPOS>MOLECULE
molecule
   42    45     1     0     0
SMALL
bcc


@<TRIPOS>ATOM
      1 C4           0.0000     0.0000     0.0000 ca         1 6RJ      -0.058000
      2 C6           0.0080     0.0020     2.4020 ca         1 6RJ      -0.308500
      3 C13         -2.9590     4.2700     2.9640 cc         1 6RJ       0.401200
      4 C20          1.9870     2.3730    -1.1280 ca         1 6RJ      -0.204000
      5 C21          2.2370     3.5890    -1.7350 ca         1 6RJ      -0.096000
      6 C16         -0.7210     0.0060    -1.2380 cg         1 6RJ       0.230800
      7 C19          2.3300     1.1940    -1.7690 ca         1 6RJ       0.139100
      8 C26          4.7600    -0.0750    -4.6280 cc         1 6RJ      -0.201300
      9 C1           1.3930     0.0010     2.3980 ca         1 6RJ      -0.015000
     10 C2           2.0880     0.0000     1.2050 ca         1 6RJ      -0.198000
     11 C3           1.4020     0.0000     0.0000 ca         1 6RJ       0.179100
     12 C5          -0.6910     0.0020     1.2140 ca         1 6RJ       0.021000
     13 S7          -0.8640     0.0030     3.9330 sy         1 6RJ       1.392200
     14 O8          -2.1490    -0.5400     3.6630 o          1 6RJ      -0.591300
     15 O9           0.0230    -0.5410     4.9010 o          1 6RJ      -0.591300
     16 N10         -1.1060     1.5860     4.3570 nu         1 6RJ      -0.755800
     17 C11         -1.9130     2.3970     3.5760 cd         1 6RJ       0.631300
     18 N12         -2.1670     3.6460     3.8170 nc         1 6RJ      -0.684000
     19 C14         -3.3970     3.5130     1.9580 cd         1 6RJ      -0.184400
     20 S15         -2.7250     1.8960     2.1580 ss         1 6RJ      -0.266300
     21 N17         -1.3010     0.0270    -2.2140 n1         1 6RJ      -0.330800
     22 O18          2.0830    -0.0020    -1.1740 os         1 6RJ      -0.246200
     23 C22          2.8260     3.6370    -2.9880 ca         1 6RJ      -0.006600
     24 C23          3.1680     2.4670    -3.6390 ca         1 6RJ      -0.115000
     25 C24          2.9290     1.2380    -3.0310 ca         1 6RJ      -0.005000
     26 C25          3.4830    -0.2020    -4.0330 cd         1 6RJ      -0.253300
     27 N27          5.0890    -1.4960    -4.9140 na         1 6RJ      -0.091600
     28 N28          3.9780    -2.1270    -4.4440 nc         1 6RJ      -0.443800
     29 C29          3.1820    -1.4760    -4.0060 cd         1 6RJ       0.402200
     30 Cl           3.3700     4.9350    -3.8940 cl         1 6RJ      -0.073400
     31 H1          -3.5780     5.1540     3.0580 h4         1 6RJ       0.060100
     32 H3           2.1120     4.4240    -1.0560 ha         1 6RJ       0.146000
     33 H4           5.3000     0.8570    -4.7410 h4         1 6RJ       0.192000
     34 H5           2.3260    -0.0620     2.9450 ha         1 6RJ       0.194000
     35 H6           3.1090     0.2960     0.9940 ha         1 6RJ       0.163000
     36 H7          -1.7670     0.0610     1.1080 ha         1 6RJ       0.178000
     37 H8          -0.3880     2.2760     4.4480 hn         1 6RJ       0.459800
     38 H9          -4.1710     3.4790     1.2010 h4         1 6RJ       0.191000
     39 H10          3.3000     2.5730    -4.7090 ha         1 6RJ       0.163000
     40 H11          6.0580    -1.4870    -5.1630 hn         1 6RJ       0.363700
     41 H12          2.2290    -1.7470    -3.5670 h4         1 6RJ       0.062100
     42 H2           1.4680     2.4630    -0.1820 ha         1 6RJ       0.148000
@<TRIPOS>BOND
     1    19     3 2   
     2    19    20 1   
     3     3    18 1   
     4    18    17 2   
     5    20    17 1   
     6    17    16 1   
     7    27     8 1   
     8    27    28 1   
     9    21     6 3   
    10     8    26 2   
    11     6     1 1   
    12    16    13 1   
    13    28    29 2   
    14     1    11 ar  
    15     1    12 ar  
    16    11    10 ar  
    17    11    22 1   
    18    12     2 ar  
    19    15    13 2   
    20    10     9 ar  
    21    22     7 1   
    22     2     9 ar  
    23     2    13 1   
    24    13    14 2   
    25    26    29 1   
    26    26    25 1   
    27     7    25 ar  
    28     7     4 ar  
    29    25    24 ar  
    30     4     5 ar  
    31    24    23 ar  
    32     5    23 ar  
    33    23    30 1   
    34     3    31 1   
    35     4    42 1   
    36     5    32 1   
    37     8    33 1   
    38     9    34 1   
    39    10    35 1   
    40    12    36 1   
    41    16    37 1   
    42    19    38 1   
    43    24    39 1   
    44    27    40 1   
    45    29    41 1   
@<TRIPOS>SUBSTRUCTURE
     1 6RJ         1 TEMP              0 ****  ****    0 ROOT
