@<TRIPOS>MOLECULE
6RL
   47    54     1     0     0
SMALL
bcc


@<TRIPOS>ATOM
      1 C5           0.0000     0.0000     0.0000 c2         1 6RL      -0.263000
      2 C6           1.3670     0.0000     0.0000 c2         1 6RL      -0.169000
      3 C8           1.8570     1.0730    -2.1690 c3         1 6RL      -0.102000
      4 C10          2.5940    -0.5670    -3.9040 DU         1 6RL      -0.176000
      5 C17          4.0210     1.3990     1.0720 ca         1 6RL      -0.105000
      6 C21          4.9570     4.0020     0.8250 ca         1 6RL      -0.136000
      7 C22          4.5730     3.5320     2.0630 ca         1 6RL      -0.028000
      8 C24          3.6850     1.7370     3.4770 c1         1 6RL      -0.178000
      9 C26          1.3650    -0.0000     2.3590 c2         1 6RL       0.035000
     10 N2           0.0190     0.0100     2.3780 n          1 6RL       0.134000
     11 C3          -0.6820     0.0060     1.2280 c2         1 6RL       0.238000
     12 O4          -1.9010     0.0060     1.2520 o          1 6RL      -0.330000
     13 N7           2.0580     0.0010    -1.1840 nh         1 6RL       0.256000
     14 C9           1.5080     0.4420    -3.5200 DU         1 6RL      -0.073000
     15 C11          2.6530    -1.6780    -2.8540 DU         1 6RL       0.533000
     16 N13          3.6740    -2.6620    -3.2380 nz         1 6RL       0.548000
     17 C14          3.0140    -1.0710    -1.4930 c3         1 6RL      -0.420000
     18 N15          2.0420     0.0000     1.1960 nx         1 6RL       0.467000
     19 C16          3.5070    -0.0110     1.2060 c3         1 6RL      -0.278000
     20 C18          4.4120     1.8770    -0.1620 ca         1 6RL      -0.112000
     21 C19          4.8800     3.1750    -0.2870 ca         1 6RL       0.057000
     22 F20          5.2630     3.6380    -1.4970 f          1 6RL      -0.083000
     23 C23          4.0960     2.2260     2.1940 ca         1 6RL       0.091000
     24 N25          3.3510     1.3660     4.4960 n1         1 6RL       0.056000
     25 O27          1.9780    -0.0090     3.4090 o          1 6RL      -0.364000
     26 H1          -0.5220    -0.6290    -0.7110 ha         1 6RL       0.159000
     27 H2           1.1240     0.8210    -2.9250 DU         1 6RL       0.109000
     28 H3           1.3250     1.9300    -1.7730 h1         1 6RL       0.147000
     29 H4           2.4230    -1.0920    -4.8360 ha         1 6RL       0.066000
     30 H5           2.9480    -1.3740    -3.2740 DU         1 6RL      -0.501000
     31 H6           5.4000     4.8650     0.3440 ha         1 6RL       0.148000
     32 H7           4.6440     4.4840     2.5740 ha         1 6RL       0.150000
     33 H8          -0.2790    -0.5320     4.5040 h1         1 6RL       0.084667
     34 H9          -0.8220     1.0060     4.0670 h1         1 6RL       0.084667
     35 H10         -1.7140    -0.2760     3.4600 h1         1 6RL       0.084667
     36 H11          2.3970     0.0190    -3.9750 DU         1 6RL       0.144000
     37 H12          1.3360     1.3070    -4.1500 ha         1 6RL       0.071000
     38 H13          1.6860    -2.1610    -2.7870 hx         1 6RL       0.002000
     39 H14          4.5100    -2.1560    -3.0230 hn         1 6RL       0.069333
     40 H15          3.1950    -3.3450    -2.6850 hn         1 6RL       0.069333
     41 H17          2.3520    -1.6890    -2.0880 DU         1 6RL       0.071000
     42 H18          3.2500    -1.6130    -0.5850 h1         1 6RL       0.165000
     43 H19          3.9730    -0.7300     1.8680 hx         1 6RL       0.159000
     44 H20          2.5110     0.0830     1.6220 DU         1 6RL       0.034000
     45 H21          4.0260     1.2040    -0.9180 ha         1 6RL       0.137000
     46 C1          -0.6890     0.0110     3.6610 c3         1 6RL      -0.121000
     47 H133         3.4460    -2.6280    -4.2120 hn         1 6RL       0.069333
@<TRIPOS>BOND
     1     1     2 1   
     2     1    11 1   
     3     1    26 1   
     4     2    13 1   
     5     2    18 1   
     6     3    13 1   
     7     3    14 1   
     8     3    27 1   
     9     3    28 1   
    10     4    14 1   
    11     4    15 1   
    12     4    29 1   
    13     4    30 1   
    14     4    36 1   
    15     5    19 1   
    16     5    20 1   
    17     5    23 1   
    18     6     7 1   
    19     6    21 1   
    20     6    31 1   
    21     7    23 1   
    22     7    32 1   
    23     8    23 1   
    24     8    24 1   
    25     9    10 1   
    26     9    18 1   
    27     9    25 1   
    28    10    11 1   
    29    10    46 1   
    30    11    12 1   
    31    13    17 1   
    32    14    27 1   
    33    14    36 1   
    34    14    37 1   
    35    15    16 1   
    36    15    17 1   
    37    15    30 1   
    38    15    38 1   
    39    15    41 1   
    40    16    39 1   
    41    16    40 1   
    42    16    47 1   
    43    17    41 1   
    44    17    42 1   
    45    18    19 1   
    46    18    44 1   
    47    19    43 1   
    48    19    44 1   
    49    20    21 1   
    50    20    45 1   
    51    21    22 1   
    52    33    46 1   
    53    34    46 1   
    54    35    46 1   
@<TRIPOS>SUBSTRUCTURE
     1 6RL         1 TEMP              0 ****  ****    0 ROOT
