@<TRIPOS>MOLECULE
molecule
   47    49     1     0     0
SMALL
bcc


@<TRIPOS>ATOM
      1 C5           0.0000     0.0000     0.0000 cc         1 6RL      -0.321200
      2 C6           1.3670     0.0000     0.0000 cd         1 6RL       0.301600
      3 C8           1.8570     1.0730    -2.1690 c3         1 6RL       0.257800
      4 C10          2.5940    -0.5670    -3.9040 c3         1 6RL      -0.290400
      5 C17          4.0210     1.3990     1.0720 ca         1 6RL      -0.056300
      6 C21          4.9570     4.0020     0.8250 ca         1 6RL      -0.172000
      7 C22          4.5730     3.5320     2.0630 ca         1 6RL      -0.057000
      8 C24          3.6850     1.7370     3.4770 cg         1 6RL       0.190800
      9 C26          1.3650    -0.0000     2.3590 c          1 6RL       0.672500
     10 N2           0.0190     0.0100     2.3780 n          1 6RL      -0.445400
     11 C3          -0.6820     0.0060     1.2280 c          1 6RL       0.695700
     12 O4          -1.9010     0.0060     1.2520 o          1 6RL      -0.565500
     13 N7           2.0580     0.0010    -1.1840 nh         1 6RL      -0.605400
     14 C9           1.5080     0.4420    -3.5200 c3         1 6RL      -0.073400
     15 C11          2.6530    -1.6780    -2.8540 c3         1 6RL       0.636500
     16 N13          3.6740    -2.6620    -3.2380 nz         1 6RL      -1.026600
     17 C14          3.0140    -1.0710    -1.4930 c3         1 6RL      -0.073200
     18 N15          2.0420     0.0000     1.1960 n          1 6RL      -0.249000
     19 C16          3.5070    -0.0110     1.2060 c3         1 6RL      -0.279700
     20 C18          4.4120     1.8770    -0.1620 ca         1 6RL      -0.142000
     21 C19          4.8800     3.1750    -0.2870 ca         1 6RL       0.115900
     22 F20          5.2630     3.6380    -1.4970 f          1 6RL      -0.131900
     23 C23          4.0960     2.2260     2.1940 ca         1 6RL       0.016000
     24 N25          3.3510     1.3660     4.4960 n1         1 6RL      -0.281800
     25 O27          1.9780    -0.0090     3.4090 o          1 6RL      -0.574500
     26 H1          -0.5220    -0.6290    -0.7110 ha         1 6RL       0.190000
     27 H2           1.1240     0.8210    -2.9250 h1         1 6RL       0.145200
     28 H3           1.3250     1.9300    -1.7730 h1         1 6RL       0.145200
     29 H4           2.4230    -1.0920    -4.8360 hc         1 6RL      -0.086300
     30 H5           2.9480    -1.3740    -3.2740 hc         1 6RL      -0.086300
     31 H6           5.4000     4.8650     0.3440 ha         1 6RL       0.176000
     32 H7           4.6440     4.4840     2.5740 ha         1 6RL       0.181000
     33 H8          -0.2790    -0.5320     4.5040 h1         1 6RL       0.078033
     34 H9          -0.8220     1.0060     4.0670 h1         1 6RL       0.078033
     35 H10         -1.7140    -0.2760     3.4600 h1         1 6RL       0.078033
     36 H11          2.3970     0.0190    -3.9750 hc         1 6RL       0.128700
     37 H12          1.3360     1.3070    -4.1500 hc         1 6RL       0.128700
     38 H13          1.6860    -2.1610    -2.7870 hx         1 6RL       0.005700
     39 H14          4.5100    -2.1560    -3.0230 hn         1 6RL       0.466467
     40 H15          3.1950    -3.3450    -2.6850 hn         1 6RL       0.466467
     41 H17          2.3520    -1.6890    -2.0880 h1         1 6RL       0.124700
     42 H18          3.2500    -1.6130    -0.5850 h1         1 6RL       0.124700
     43 H19          3.9730    -0.7300     1.8680 h1         1 6RL       0.209700
     44 H20          2.5110     0.0830     1.6220 h1         1 6RL       0.209700
     45 H21          4.0260     1.2040    -0.9180 ha         1 6RL       0.160000
     46 C1          -0.6890     0.0110     3.6610 c3         1 6RL       0.067300
     47 H133         3.4460    -2.6280    -4.2120 hn         1 6RL       0.466467
@<TRIPOS>BOND
     1    46    10 1
     2    25     9 2
     3    22    21 1
     4    10     9 1
     5    10    11 1
     6     9    18 1
     7    20    21 ar
     8    20     5 ar
     9    21     6 ar
    10    12    11 2
    11    11     1 1
    12    18    19 1
    13    18     2 1
    14    19     5 1
    15     5    23 ar
    16     6     7 ar
    17     1     2 2
    18     2    13 1
    19    23     7 ar
    20    23     8 1
    21     3    13 1
    22     3    14 1
    23    13    17 1
    24     8    24 3
    25    14     4 1
    26    17    15 1
    27     4    15 1
    28    15    16 1
    29     1    26 1
    30     3    27 1
    31     3    28 1
    32     4    29 1
    33     4    30 1
    34     6    31 1
    35     7    32 1
    36    46    33 1
    37    46    34 1
    38    46    35 1
    39    14    36 1
    40    14    37 1
    41    15    38 1
    42    16    39 1
    43    16    40 1
    44    17    41 1
    45    17    42 1
    46    19    43 1
    47    19    44 1
    48    20    45 1
    49    47    16 1
@<TRIPOS>SUBSTRUCTURE
     1 6RL         1 TEMP              0 ****  ****    0 ROOT
