@<TRIPOS>MOLECULE
6RM
   42    45     1     0     0
SMALL
bcc


@<TRIPOS>ATOM
      1 C4           0.0000     0.0000     0.0000 cc         1 6RM      -0.297200
      2 C14         -1.9900     0.0200     3.8810 cx         1 6RM      -0.043400
      3 C5           1.3790     0.0000     0.0000 cd         1 6RM       0.148400
      4 C6           1.3770     0.0020     2.3100 cc         1 6RM       0.040600
      5 C11          5.1460     1.7070    -4.8330 ca         1 6RM       0.062900
      6 C7           2.1430    -0.0010    -1.2990 c3         1 6RM       0.259600
      7 C8           3.6230     1.3800    -2.5460 ca         1 6RM       0.141100
      8 C9           4.3590     2.5420    -2.7300 ca         1 6RM      -0.150500
      9 C10          5.1190     2.7030    -3.8720 ca         1 6RM      -0.088500
     10 C12          4.4070     0.5500    -4.6530 ca         1 6RM      -0.088500
     11 C13          3.6460     0.3850    -3.5110 ca         1 6RM      -0.150500
     12 N1           2.0250     0.0000     1.1600 nd         1 6RM      -0.204600
     13 C3          -0.6840     0.0070     1.2160 c          1 6RM       0.480500
     14 O1           2.8760     1.2200    -1.4220 os         1 6RM      -0.289900
     15 O           -1.9050     0.0170     1.2330 o          1 6RM      -0.667500
     16 S            1.9580     0.0030     3.9840 ss         1 6RM      -0.262800
     17 C1           0.3320     0.0240     4.6890 cc         1 6RM       0.031600
     18 C           -0.0290     0.0360     6.1520 c3         1 6RM       0.110200
     19 N            0.0170     0.0130     2.3880 n          1 6RM       0.400800
     20 C2          -0.4990     0.0190     3.6600 cd         1 6RM      -0.179600
     21 C16         -2.5550     1.0320     4.8800 cx         1 6RM      -0.132700
     22 C15         -2.7770     1.2330     3.3780 cx         1 6RM      -0.018400
     23 C17         -3.7580     0.5990     5.7200 c3         1 6RM       0.265400
     24 O2          -4.0700     1.6210     6.6680 oh         1 6RM      -0.591800
     25 H1          -0.5420    -0.1550    -0.9250 ha         1 6RM       0.150000
     26 H3          -2.5270    -0.9190     3.8340 hc         1 6RM       0.078700
     27 H4           1.4480    -0.0900    -2.1260 h1         1 6RM       0.014700
     28 H5           2.8300    -0.8380    -1.3130 h1         1 6RM       0.014700
     29 H6           4.3400     3.3200    -1.9770 ha         1 6RM       0.121500
     30 H7           5.6950     3.6090    -4.0150 ha         1 6RM       0.117500
     31 H8           4.4280    -0.2270    -5.4070 ha         1 6RM       0.117500
     32 H9           3.0700    -0.5210    -3.3700 ha         1 6RM       0.121500
     33 H10         -0.8720    -0.6230     6.3210 hc         1 6RM       0.022367
     34 H11          0.8180    -0.3050     6.7350 hc         1 6RM       0.022367
     35 H12         -0.2920     1.0430     6.4510 hc         1 6RM       0.022367
     36 H13         -1.8190     1.6930     5.3210 hc         1 6RM       0.076700
     37 H14         -2.1860     2.0160     2.9190 hc         1 6RM       0.052700
     38 H15         -3.7780     1.0260     3.0220 hc         1 6RM       0.052700
     39 H16         -4.6100     0.4350     5.0720 h1         1 6RM      -0.012300
     40 H17         -3.5200    -0.3190     6.2440 h1         1 6RM      -0.012300
     41 H18         -4.8260     1.3650     7.1690 ho         1 6RM       0.391000
     42 F            5.8890     1.8660    -5.9490 f          1 6RM      -0.128900
@<TRIPOS>BOND
     1     1     3 2   
     2     1    13 1   
     3     1    25 1   
     4     2    20 1   
     5     2    21 1   
     6     2    22 1   
     7     2    26 1   
     8     3     6 1   
     9     3    12 1   
    10     4    12 2   
    11     4    16 1   
    12     4    19 1   
    13     5     9 ar  
    14     5    10 ar  
    15     5    42 1   
    16     6    14 1   
    17     6    27 1   
    18     6    28 1   
    19     7     8 ar  
    20     7    11 ar  
    21     7    14 1   
    22     8     9 ar  
    23     8    29 1   
    24     9    30 1   
    25    10    11 ar  
    26    10    31 1   
    27    11    32 1   
    28    13    15 2   
    29    13    19 1   
    30    16    17 1   
    31    17    18 1   
    32    17    20 2   
    33    18    33 1   
    34    18    34 1   
    35    18    35 1   
    36    19    20 1   
    37    21    22 1   
    38    21    23 1   
    39    21    36 1   
    40    22    37 1   
    41    22    38 1   
    42    23    24 1   
    43    23    39 1   
    44    23    40 1   
    45    24    41 1   
@<TRIPOS>SUBSTRUCTURE
     1 6RM         1 TEMP              0 ****  ****    0 ROOT
