@<TRIPOS>MOLECULE
molecule
   42    45     1     0     0
SMALL
bcc


@<TRIPOS>ATOM
      1 C4           0.0000     0.0000     0.0000 cc         1 6RM      -0.323200
      2 C14         -1.9900     0.0200     3.8810 cx         1 6RM      -0.078400
      3 C5           1.3790     0.0000     0.0000 cd         1 6RM       0.213400
      4 C6           1.3770     0.0020     2.3100 cc         1 6RM       0.210600
      5 C11          5.1460     1.7070    -4.8330 ca         1 6RM       0.094900
      6 C7           2.1430    -0.0010    -1.2990 c3         1 6RM       0.196600
      7 C8           3.6230     1.3800    -2.5460 ca         1 6RM       0.129100
      8 C9           4.3590     2.5420    -2.7300 ca         1 6RM      -0.165000
      9 C10          5.1190     2.7030    -3.8720 ca         1 6RM      -0.128500
     10 C12          4.4070     0.5500    -4.6530 ca         1 6RM      -0.128500
     11 C13          3.6460     0.3850    -3.5110 ca         1 6RM      -0.165000
     12 N1           2.0250     0.0000     1.1600 nd         1 6RM      -0.342600
     13 C3          -0.6840     0.0070     1.2160 c          1 6RM       0.584500
     14 O1           2.8760     1.2200    -1.4220 os         1 6RM      -0.311900
     15 O           -1.9050     0.0170     1.2330 o          1 6RM      -0.624500
     16 S            1.9580     0.0030     3.9840 ss         1 6RM      -0.119800
     17 C1           0.3320     0.0240     4.6890 cd         1 6RM      -0.036400
     18 C           -0.0290     0.0360     6.1520 c3         1 6RM       0.001200
     19 N            0.0170     0.0130     2.3880 n          1 6RM      -0.077200
     20 C2          -0.4990     0.0190     3.6600 cc         1 6RM      -0.014600
     21 C16         -2.5550     1.0320     4.8800 cx         1 6RM      -0.136700
     22 C15         -2.7770     1.2330     3.3780 cx         1 6RM      -0.070400
     23 C17         -3.7580     0.5990     5.7200 c3         1 6RM       0.175400
     24 O2          -4.0700     1.6210     6.6680 oh         1 6RM      -0.607800
     25 H1          -0.5420    -0.1550    -0.9250 ha         1 6RM       0.172000
     26 H3          -2.5270    -0.9190     3.8340 hc         1 6RM       0.104700
     27 H4           1.4480    -0.0900    -2.1260 h1         1 6RM       0.055200
     28 H5           2.8300    -0.8380    -1.3130 h1         1 6RM       0.055200
     29 H6           4.3400     3.3200    -1.9770 ha         1 6RM       0.146000
     30 H7           5.6950     3.6090    -4.0150 ha         1 6RM       0.148000
     31 H8           4.4280    -0.2270    -5.4070 ha         1 6RM       0.148000
     32 H9           3.0700    -0.5210    -3.3700 ha         1 6RM       0.146000
     33 H10         -0.8720    -0.6230     6.3210 hc         1 6RM       0.057700
     34 H11          0.8180    -0.3050     6.7350 hc         1 6RM       0.057700
     35 H12         -0.2920     1.0430     6.4510 hc         1 6RM       0.057700
     36 H13         -1.8190     1.6930     5.3210 hc         1 6RM       0.097700
     37 H14         -2.1860     2.0160     2.9190 hc         1 6RM       0.085200
     38 H15         -3.7780     1.0260     3.0220 hc         1 6RM       0.085200
     39 H16         -4.6100     0.4350     5.0720 h1         1 6RM       0.024200
     40 H17         -3.5200    -0.3190     6.2440 h1         1 6RM       0.024200
     41 H18         -4.8260     1.3650     7.1690 ho         1 6RM       0.405000
     42 F            5.8890     1.8660    -5.9490 f          1 6RM      -0.142900
@<TRIPOS>BOND
     1     2    22 1   
     2     2    20 1   
     3     2    21 1   
     4    15    13 2   
     5    22    21 1   
     6    23    21 1   
     7    23    24 1   
     8    20    19 1   
     9    20    17 2   
    10    13    19 1   
    11    13     1 1   
    12    18    17 1   
    13    19     4 1   
    14    17    16 1   
    15     1     3 2   
    16     4    16 1   
    17     4    12 2   
    18     3    12 1   
    19     3     6 1   
    20     6    14 1   
    21    14     7 1   
    22     7     8 ar  
    23     7    11 ar  
    24     8     9 ar  
    25    11    10 ar  
    26     9     5 ar  
    27    10     5 ar  
    28     5    42 1   
    29     1    25 1   
    30     2    26 1   
    31     6    27 1   
    32     6    28 1   
    33     8    29 1   
    34     9    30 1   
    35    10    31 1   
    36    11    32 1   
    37    18    33 1   
    38    18    34 1   
    39    18    35 1   
    40    21    36 1   
    41    22    37 1   
    42    22    38 1   
    43    23    39 1   
    44    23    40 1   
    45    24    41 1   
@<TRIPOS>SUBSTRUCTURE
     1 6RM         1 TEMP              0 ****  ****    0 ROOT
