@<TRIPOS>MOLECULE
6RO
   20    20     1     0     0
SMALL
bcc


@<TRIPOS>ATOM
      1 C4           0.0000     0.0000     0.0000 ca         1 6RO      -0.034600
      2 C5           1.3840     0.0000     0.0000 ca         1 6RO      -0.093000
      3 C6           2.0750     0.0000     1.1950 ca         1 6RO      -0.092500
      4 Cl          -0.8660    -0.0070    -1.5050 cl         1 6RO      -0.023400
      5 C3          -0.6950     0.0010     1.1970 ca         1 6RO      -0.093000
      6 C2          -0.0080     0.0010     2.3950 ca         1 6RO      -0.092500
      7 C1           1.3800     0.0010     2.3980 ca         1 6RO       0.042600
      8 N            2.0780     0.0000     3.6090 nu         1 6RO      -0.435500
      9 S            2.8090     1.3870     4.1440 s6         1 6RO       0.949900
     10 O            3.4130     1.0120     5.3760 o          1 6RO      -0.581800
     11 O1           3.5970     1.8150     3.0420 o          1 6RO      -0.581800
     12 C            1.4380     2.5390     4.4320 c3         1 6RO       0.013700
     13 H1           1.9250    -0.0000    -0.9380 ha         1 6RO       0.116500
     14 H2           3.1580    -0.0000     1.1950 ha         1 6RO       0.121000
     15 H3          -1.7780     0.0020     1.1940 ha         1 6RO       0.116500
     16 H4          -0.5520     0.0020     3.3320 ha         1 6RO       0.121000
     17 H5           2.1600    -0.8450     4.1390 hn         1 6RO       0.353800
     18 H6           1.7820     3.3630     5.0470 h1         1 6RO       0.063700
     19 H7           1.0820     2.9210     3.4830 h1         1 6RO       0.063700
     20 H8           0.6320     2.0230     4.9390 h1         1 6RO       0.063700
@<TRIPOS>BOND
     1     1     2 ar  
     2     1     4 1   
     3     1     5 ar  
     4     2     3 ar  
     5     2    13 1   
     6     3     7 ar  
     7     3    14 1   
     8     5     6 ar  
     9     5    15 1   
    10     6     7 ar  
    11     6    16 1   
    12     7     8 1   
    13     8     9 1   
    14     8    17 1   
    15     9    10 2   
    16     9    11 2   
    17     9    12 1   
    18    12    18 1   
    19    12    19 1   
    20    12    20 1   
@<TRIPOS>SUBSTRUCTURE
     1 6RO         1 TEMP              0 ****  ****    0 ROOT
