@<TRIPOS>MOLECULE
molecule
   20    20     1     0     0
SMALL
bcc


@<TRIPOS>ATOM
      1 C4           0.0000     0.0000     0.0000 ca         1 6RO       0.033400
      2 C5           1.3840     0.0000     0.0000 ca         1 6RO      -0.119000
      3 C6           2.0750     0.0000     1.1950 ca         1 6RO      -0.113000
      4 Cl          -0.8660    -0.0070    -1.5050 cl         1 6RO      -0.102400
      5 C3          -0.6950     0.0010     1.1970 ca         1 6RO      -0.119000
      6 C2          -0.0080     0.0010     2.3950 ca         1 6RO      -0.113000
      7 C1           1.3800     0.0010     2.3980 ca         1 6RO       0.114600
      8 N            2.0780     0.0000     3.6090 nu         1 6RO      -0.783500
      9 S            2.8090     1.3870     4.1440 s6         1 6RO       1.322900
     10 O            3.4130     1.0120     5.3760 o          1 6RO      -0.624300
     11 O1           3.5970     1.8150     3.0420 o          1 6RO      -0.624300
     12 C            1.4380     2.5390     4.4320 c3         1 6RO      -0.243300
     13 H1           1.9250    -0.0000    -0.9380 ha         1 6RO       0.150000
     14 H2           3.1580    -0.0000     1.1950 ha         1 6RO       0.152000
     15 H3          -1.7780     0.0020     1.1940 ha         1 6RO       0.150000
     16 H4          -0.5520     0.0020     3.3320 ha         1 6RO       0.152000
     17 H5           2.1600    -0.8450     4.1390 hn         1 6RO       0.467800
     18 H6           1.7820     3.3630     5.0470 h1         1 6RO       0.099700
     19 H7           1.0820     2.9210     3.4830 h1         1 6RO       0.099700
     20 H8           0.6320     2.0230     4.9390 h1         1 6RO       0.099700
@<TRIPOS>BOND
     1     4     1 1
     2     2     1 ar
     3     2     3 ar
     4     1     5 ar
     5     3     7 ar
     6     5     6 ar
     7     7     6 ar
     8     7     8 1
     9     8     9 1
    10    12     9 1
    11     9    11 2
    12     9    10 2
    13     2    13 1
    14     3    14 1
    15     5    15 1
    16     6    16 1
    17     8    17 1
    18    12    18 1
    19    12    19 1
    20    12    20 1
@<TRIPOS>SUBSTRUCTURE
     1 6RO         1 TEMP              0 ****  ****    0 ROOT
