@<TRIPOS>MOLECULE
molecule
   21    22     1     0     0
SMALL
bcc


@<TRIPOS>ATOM
      1 CAD          0.0000     0.0000     0.0000 cc         1 6RP      -0.053800
      2 CAI          1.3530     0.0000     0.0000 cd         1 6RP      -0.399800
      3 CAK          1.7840     0.0000     1.3310 cd         1 6RP       0.313200
      4 NAL          0.7270     0.0000     2.1020 nc         1 6RP      -0.526300
      5 NAE         -0.4110     0.0060     1.2860 na         1 6RP       0.085400
      6 CA          -1.8020     0.0070     1.7450 c3         1 6RP       0.103700
      7 C           -2.6430     0.8270     0.8010 c          1 6RP       0.870600
      8 O           -2.1320     1.3560    -0.1580 o          1 6RP      -0.803300
      9 OXT         -3.9590     0.9700     1.0260 o          1 6RP      -0.803300
     10 N           -2.3070    -1.3680     1.7790 na         1 6RP       0.085400
     11 NAM         -2.3310    -2.2100     2.8990 nd         1 6RP      -0.526300
     12 CAN         -2.8570    -3.3530     2.5410 cc         1 6RP       0.313200
     13 CAJ         -3.1840    -3.2750     1.1820 cc         1 6RP      -0.399800
     14 CAH         -2.8360    -2.0450     0.7390 cd         1 6RP      -0.053800
     15 H1          -0.6390     0.0010    -0.8750 h4         1 6RP       0.187000
     16 H2           1.9900    -0.0020    -0.8760 ha         1 6RP       0.132500
     17 H3           2.8150    -0.0020     1.6650 h4         1 6RP       0.023100
     18 H4          -1.8530     0.4350     2.7390 h2         1 6RP       0.109700
     19 H6          -3.0120    -4.2110     3.1840 h4         1 6RP       0.023100
     20 H7          -3.6370    -4.0610     0.5900 ha         1 6RP       0.132500
     21 H8          -2.9600    -1.6710    -0.2700 h4         1 6RP       0.187000
@<TRIPOS>BOND
     1    12    11 2
     2    12    13 1
     3    11    10 1
     4     8     7 1
     5     4     3 2
     6     4     5 1
     7     3     2 1
     8    13    14 2
     9    10    14 1
    10    10     6 1
    11     7     6 1
    12     7     9 1
    13     5     6 1
    14     5     1 1
    15     2     1 2
    16     1    15 1
    17     2    16 1
    18     3    17 1
    19     6    18 1
    20    12    19 1
    21    13    20 1
    22    14    21 1
@<TRIPOS>SUBSTRUCTURE
     1 6RP         1 TEMP              0 ****  ****    0 ROOT
