@<TRIPOS>MOLECULE
molecule
   23    24     1     0     0
SMALL
bcc


@<TRIPOS>ATOM
      1 C4           0.0000     0.0000     0.0000 ca         1 6RQ       0.095400
      2 C5           1.4050     0.0000     0.0000 ca         1 6RQ      -0.091200
      3 C6           2.0970     0.0000     1.2020 ca         1 6RQ      -0.128000
      4 C7           1.4030    -0.0000     2.3940 ca         1 6RQ      -0.068300
      5 C8           2.1580    -0.0000     3.6990 c3         1 6RQ      -0.042800
      6 C11          0.6500    -0.0020    -2.0820 cc         1 6RQ       0.635700
      7 C2           0.0160    -0.0000     2.4000 ca         1 6RQ      -0.100300
      8 C1          -0.7260     0.0070     3.7120 c3         1 6RQ      -0.040800
      9 C3          -0.6870     0.0060     1.2160 ca         1 6RQ      -0.070000
     10 N9           1.7900    -0.0010    -1.3300 na         1 6RQ      -0.280300
     11 N10         -0.4000    -0.0010    -1.2980 nd         1 6RQ      -0.608100
     12 N12          0.6100    -0.0030    -3.4600 nv         1 6RQ      -1.008800
     13 H1           3.1780    -0.0590     1.2040 ha         1 6RQ       0.126000
     14 H2           1.9000    -0.8870     4.2660 hc         1 6RQ       0.042367
     15 H3           3.2230     0.0040     3.5010 hc         1 6RQ       0.042367
     16 H4           1.8930     0.8820     4.2690 hc         1 6RQ       0.042367
     17 H5          -0.4580    -0.8730     4.2830 hc         1 6RQ       0.041700
     18 H6          -0.4610     0.8960     4.2720 hc         1 6RQ       0.041700
     19 H7          -1.7930     0.0040     3.5230 hc         1 6RQ       0.041700
     20 H8          -1.7700     0.0060     1.2280 ha         1 6RQ       0.143000
     21 H9           2.7290    -0.0010    -1.6770 hn         1 6RQ       0.297700
     22 H11          0.5830     0.8640    -3.9600 hn         1 6RQ       0.443800
     23 H12          0.5830    -0.8700    -3.9590 hn         1 6RQ       0.443800
@<TRIPOS>BOND
     1     8     7 1   
     2     7     9 ar  
     3     7     4 ar  
     4     9     1 ar  
     5     5     4 1   
     6     4     3 ar  
     7     1    11 1   
     8     1     2 ar  
     9     3     2 ar  
    10    11     6 2   
    11     2    10 1   
    12     6    10 1   
    13     6    12 1   
    14     3    13 1   
    15     5    14 1   
    16     5    15 1   
    17     5    16 1   
    18     8    17 1   
    19     8    18 1   
    20     8    19 1   
    21     9    20 1   
    22    10    21 1   
    23    12    22 1   
    24    12    23 1   
@<TRIPOS>SUBSTRUCTURE
     1 6RQ         1 TEMP              0 ****  ****    0 ROOT
