@<TRIPOS>MOLECULE
6RQ
   23    24     1     0     0
SMALL
bcc


@<TRIPOS>ATOM
      1 C4           0.0000     0.0000     0.0000 ca         1 6RQ       0.067400
      2 C5           1.4050     0.0000     0.0000 ca         1 6RQ      -0.267200
      3 C6           2.0970     0.0000     1.2020 ca         1 6RQ      -0.090000
      4 C7           1.4030    -0.0000     2.3940 ca         1 6RQ      -0.076300
      5 C8           2.1580    -0.0000     3.6990 c3         1 6RQ       0.063200
      6 C11          0.6500    -0.0020    -2.0820 cc         1 6RQ       0.291700
      7 C2           0.0160    -0.0000     2.4000 ca         1 6RQ      -0.106300
      8 C1          -0.7260     0.0070     3.7120 c3         1 6RQ       0.066200
      9 C3          -0.6870     0.0060     1.2160 ca         1 6RQ      -0.038000
     10 N9           1.7900    -0.0010    -1.3300 na         1 6RQ       0.242700
     11 N10         -0.4000    -0.0010    -1.2980 nd         1 6RQ      -0.525100
     12 N12          0.6100    -0.0030    -3.4600 nv         1 6RQ      -0.558800
     13 H1           3.1780    -0.0590     1.2040 ha         1 6RQ       0.103000
     14 H2           1.9000    -0.8870     4.2660 hc         1 6RQ       0.007700
     15 H3           3.2230     0.0040     3.5010 hc         1 6RQ       0.007700
     16 H4           1.8930     0.8820     4.2690 hc         1 6RQ       0.007700
     17 H5          -0.4580    -0.8730     4.2830 hc         1 6RQ       0.007033
     18 H6          -0.4610     0.8960     4.2720 hc         1 6RQ       0.007033
     19 H7          -1.7930     0.0040     3.5230 hc         1 6RQ       0.007033
     20 H8          -1.7700     0.0060     1.2280 ha         1 6RQ       0.113000
     21 H9           2.7290    -0.0010    -1.6770 hn         1 6RQ       0.124700
     22 H11          0.5830     0.8640    -3.9600 hn         1 6RQ       0.273800
     23 H12          0.5830    -0.8700    -3.9590 hn         1 6RQ       0.273800
@<TRIPOS>BOND
     1     1     2 ar  
     2     1     9 ar  
     3     1    11 1   
     4     2     3 ar  
     5     2    10 1   
     6     3     4 ar  
     7     3    13 1   
     8     4     5 1   
     9     4     7 ar  
    10     5    14 1   
    11     5    15 1   
    12     5    16 1   
    13     6    10 1   
    14     6    11 2   
    15     6    12 1   
    16     7     8 1   
    17     7     9 ar  
    18     8    17 1   
    19     8    18 1   
    20     8    19 1   
    21     9    20 1   
    22    10    21 1   
    23    12    22 1   
    24    12    23 1   
@<TRIPOS>SUBSTRUCTURE
     1 6RQ         1 TEMP              0 ****  ****    0 ROOT
