@<TRIPOS>MOLECULE
molecule
   32    33     1     0     0
SMALL
bcc


@<TRIPOS>ATOM
      1 O10          0.0000     0.0000     0.0000 o          1 6RR      -0.608300
      2 C15          4.1340     2.4630     5.6800 ca         1 6RR       0.366200
      3 C14          2.9610     1.8220     5.3290 ca         1 6RR      -0.210300
      4 C12          2.6410     0.0000     0.0000 c3         1 6RR      -0.220600
      5 C02          5.1110     1.9400     3.6600 ca         1 6RR       0.356600
      6 C03          3.9650     1.2810     3.2340 ca         1 6RR       0.080300
      7 N04          3.9150     0.6910     1.9690 nu         1 6RR      -0.816600
      8 C05          2.7000     0.0000     1.5290 c3         1 6RR       0.265500
      9 C06          2.7180    -1.4340     2.0500 c3         1 6RR      -0.124400
     10 C07          1.3650    -2.1040     1.8280 c3         1 6RR      -0.065400
     11 C08          1.1450    -2.3560     0.3340 c3         1 6RR      -0.200600
     12 S09          1.0780    -0.7590    -0.5300 s6         1 6RR       1.104000
     13 O11          1.1400    -0.9970    -1.9300 o          1 6RR      -0.608300
     14 C13          2.8650     1.2180     4.0860 ca         1 6RR      -0.177000
     15 N16          5.1570     2.5060     4.8500 nb         1 6RR      -0.653000
     16 H2           2.1260     1.7920     6.0180 ha         1 6RR       0.137000
     17 H3           2.6900     1.0190    -0.3640 h1         1 6RR       0.107700
     18 H4           3.4720    -0.5720    -0.3940 h1         1 6RR       0.107700
     19 H5           6.7080     1.0230     2.5930 hc         1 6RR       0.048700
     20 H6           7.0670     2.6440     3.2040 hc         1 6RR       0.048700
     21 H7           6.0120     2.4420     1.7980 hc         1 6RR       0.048700
     22 H8           4.7070     0.7470     1.3600 hn         1 6RR       0.445800
     23 H9           1.8290     0.5110     1.9200 h1         1 6RR       0.077700
     24 H10          3.4830    -1.9940     1.5250 hc         1 6RR       0.063700
     25 H11          0.5800    -1.4580     2.2010 hc         1 6RR       0.064700
     26 H12          1.9660    -2.9450    -0.0580 h1         1 6RR       0.104200
     27 H13          0.2110    -2.8850     0.1910 h1         1 6RR       0.104200
     28 H14          1.9570     0.7100     3.7840 ha         1 6RR       0.139000
     29 H15          2.9400    -1.4250     3.1110 hc         1 6RR       0.063700
     30 H16          1.3420    -3.0490     2.3570 hc         1 6RR       0.064700
     31 H1           4.2120     2.9380     6.6500 h4         1 6RR       0.022100
     32 C01          6.3090     2.0180     2.7500 c3         1 6RR      -0.137400
@<TRIPOS>BOND
     1    13    12 2
     2    12    11 1
     3    12     4 1
     4    12     1 2
     5    11    10 1
     6     4     8 1
     7    10     9 1
     8     8     7 1
     9     8     9 1
    10    14     3 ar
    11    14     6 ar
    12     3     2 ar
    13     7     6 1
    14     2    15 ar
    15     6     5 ar
    16    15     5 ar
    17     5    32 1
    18     2    31 1
    19     3    16 1
    20     4    17 1
    21     4    18 1
    22    32    19 1
    23    32    20 1
    24    32    21 1
    25     7    22 1
    26     8    23 1
    27     9    24 1
    28    10    25 1
    29    11    26 1
    30    11    27 1
    31    14    28 1
    32     9    29 1
    33    10    30 1
@<TRIPOS>SUBSTRUCTURE
     1 6RR         1 TEMP              0 ****  ****    0 ROOT
