@<TRIPOS>MOLECULE
6RS
   41    43     1     0     0
SMALL
bcc


@<TRIPOS>ATOM
      1 C17          0.0000     0.0000     0.0000 c3         1 6RS      -0.111400
      2 C14          0.9760     1.9200     2.2650 ca         1 6RS       0.086100
      3 C13          2.1280     1.2210     1.9360 ca         1 6RS       0.090100
      4 C20          1.0670     3.1610     2.8750 ca         1 6RS      -0.098000
      5 C18          1.5210     0.0000     0.0000 c3         1 6RS       0.216400
      6 O15         -0.2450     1.3790     1.9850 os         1 6RS      -0.314900
      7 C01          5.1410     3.3690     4.6110 c3         1 6RS      -0.020100
      8 C02          4.8110     3.5930     3.1340 c3         1 6RS       0.195800
      9 N03          4.7900     5.0300     2.8500 nu         1 6RS      -0.428600
     10 C04          5.9780     5.7000     2.5470 ca         1 6RS      -0.038700
     11 C05          5.9710     7.0620     2.2770 ca         1 6RS       0.292600
     12 C06          4.6690     7.8230     2.3110 c3         1 6RS      -0.034400
     13 N07          7.0900     7.6970     1.9920 nb         1 6RS      -0.532000
     14 C08          8.2520     7.0730     1.9510 ca         1 6RS       0.336200
     15 C09          8.3400     5.7180     2.2080 ca         1 6RS      -0.171300
     16 C10          7.1880     5.0120     2.5170 ca         1 6RS      -0.171000
     17 C11          3.4590     3.0000     2.8260 ca         1 6RS      -0.102300
     18 C12          3.3720     1.7620     2.2170 ca         1 6RS      -0.094000
     19 C16         -0.5780     1.2730     0.5990 c3         1 6RS       0.216400
     20 O19          2.0280     0.0000     1.3360 os         1 6RS      -0.314900
     21 C21          2.3110     3.6980     3.1530 ca         1 6RS      -0.102000
     22 H1          -0.3390    -0.8390     0.5960 hc         1 6RS       0.035700
     23 H2          -0.3390    -0.0760    -1.0260 hc         1 6RS       0.035700
     24 H3           0.1680     3.7080     3.1320 ha         1 6RS       0.117000
     25 H4           1.8650     0.8980    -0.4990 h1         1 6RS       0.013200
     26 H5           1.8650    -0.8980    -0.4990 h1         1 6RS       0.013200
     27 H7           4.7670     2.4010     4.9210 hc         1 6RS       0.013700
     28 H8           6.2150     3.4030     4.7500 hc         1 6RS       0.013700
     29 H9           5.5630     3.1140     2.5190 h1         1 6RS       0.041700
     30 H10          3.9220     5.5290     2.8570 hn         1 6RS       0.307800
     31 H11          4.8420     8.8470     2.0040 hc         1 6RS       0.010033
     32 H12          3.9620     7.3580     1.6350 hc         1 6RS       0.010033
     33 H13          4.2700     7.8090     3.3180 hc         1 6RS       0.010033
     34 H14          9.1490     7.6310     1.7110 h4         1 6RS      -0.019900
     35 H15          9.2990     5.2150     2.1740 ha         1 6RS       0.107000
     36 H16          7.2280     3.9490     2.7230 ha         1 6RS       0.121000
     37 H17          4.2680     1.1770     2.0490 ha         1 6RS       0.120000
     38 H18         -1.6560     1.2380     0.5050 h1         1 6RS       0.012700
     39 H19         -0.1530     2.1220     0.0770 h1         1 6RS       0.012700
     40 H20          2.3860     4.6650     3.6350 ha         1 6RS       0.110000
     41 H6           4.6750     4.1440     5.2070 hc         1 6RS       0.013700
@<TRIPOS>BOND
     1     1     5 1   
     2     1    19 1   
     3     1    22 1   
     4     1    23 1   
     5     2     3 ar  
     6     2     4 ar  
     7     2     6 1   
     8     3    18 ar  
     9     3    20 1   
    10     4    21 ar  
    11     4    24 1   
    12     5    20 1   
    13     5    25 1   
    14     5    26 1   
    15     6    19 1   
    16     7     8 1   
    17     7    27 1   
    18     7    28 1   
    19     7    41 1   
    20     8     9 1   
    21     8    17 1   
    22     8    29 1   
    23     9    10 1   
    24     9    30 1   
    25    10    11 ar  
    26    10    16 ar  
    27    11    12 1   
    28    11    13 ar  
    29    12    31 1   
    30    12    32 1   
    31    12    33 1   
    32    13    14 ar  
    33    14    15 ar  
    34    14    34 1   
    35    15    16 ar  
    36    15    35 1   
    37    16    36 1   
    38    17    18 ar  
    39    17    21 ar  
    40    18    37 1   
    41    19    38 1   
    42    19    39 1   
    43    21    40 1   
@<TRIPOS>SUBSTRUCTURE
     1 6RS         1 TEMP              0 ****  ****    0 ROOT
