@<TRIPOS>MOLECULE
molecule
   41    43     1     0     0
SMALL
bcc


@<TRIPOS>ATOM
      1 C17          0.0000     0.0000     0.0000 c3         1 6RS      -0.155400
      2 C14          0.9760     1.9200     2.2650 ca         1 6RS       0.082100
      3 C13          2.1280     1.2210     1.9360 ca         1 6RS       0.086100
      4 C20          1.0670     3.1610     2.8750 ca         1 6RS      -0.124000
      5 C18          1.5210     0.0000     0.0000 c3         1 6RS       0.142400
      6 O15         -0.2450     1.3790     1.9850 os         1 6RS      -0.333900
      7 C01          5.1410     3.3690     4.6110 c3         1 6RS      -0.110100
      8 C02          4.8110     3.5930     3.1340 c3         1 6RS       0.287800
      9 N03          4.7900     5.0300     2.8500 nu         1 6RS      -0.820600
     10 C04          5.9780     5.7000     2.5470 ca         1 6RS       0.087300
     11 C05          5.9710     7.0620     2.2770 ca         1 6RS       0.352600
     12 C06          4.6690     7.8230     2.3110 c3         1 6RS      -0.136400
     13 N07          7.0900     7.6970     1.9920 nb         1 6RS      -0.654000
     14 C08          8.2520     7.0730     1.9510 ca         1 6RS       0.361200
     15 C09          8.3400     5.7180     2.2080 ca         1 6RS      -0.210300
     16 C10          7.1880     5.0120     2.5170 ca         1 6RS      -0.180000
     17 C11          3.4590     3.0000     2.8260 ca         1 6RS      -0.093300
     18 C12          3.3720     1.7620     2.2170 ca         1 6RS      -0.121000
     19 C16         -0.5780     1.2730     0.5990 c3         1 6RS       0.141400
     20 O19          2.0280     0.0000     1.3360 os         1 6RS      -0.333900
     21 C21          2.3110     3.6980     3.1530 ca         1 6RS      -0.125000
     22 H1          -0.3390    -0.8390     0.5960 hc         1 6RS       0.065700
     23 H2          -0.3390    -0.0760    -1.0260 hc         1 6RS       0.065700
     24 H3           0.1680     3.7080     3.1320 ha         1 6RS       0.147000
     25 H4           1.8650     0.8980    -0.4990 h1         1 6RS       0.054200
     26 H5           1.8650    -0.8980    -0.4990 h1         1 6RS       0.054200
     27 H7           4.7670     2.4010     4.9210 hc         1 6RS       0.045700
     28 H8           6.2150     3.4030     4.7500 hc         1 6RS       0.045700
     29 H9           5.5630     3.1140     2.5190 h1         1 6RS       0.064700
     30 H10          3.9220     5.5290     2.8570 hn         1 6RS       0.444800
     31 H11          4.8420     8.8470     2.0040 hc         1 6RS       0.047700
     32 H12          3.9620     7.3580     1.6350 hc         1 6RS       0.047700
     33 H13          4.2700     7.8090     3.3180 hc         1 6RS       0.047700
     34 H14          9.1490     7.6310     1.7110 h4         1 6RS       0.020100
     35 H15          9.2990     5.2150     2.1740 ha         1 6RS       0.134000
     36 H16          7.2280     3.9490     2.7230 ha         1 6RS       0.138000
     37 H17          4.2680     1.1770     2.0490 ha         1 6RS       0.148000
     38 H18         -1.6560     1.2380     0.5050 h1         1 6RS       0.053700
     39 H19         -0.1530     2.1220     0.0770 h1         1 6RS       0.053700
     40 H20          2.3860     4.6650     3.6350 ha         1 6RS       0.133000
     41 H6           4.6750     4.1440     5.2070 hc         1 6RS       0.045700
@<TRIPOS>BOND
     1     7     8 1
     2     8     9 1
     3     8    17 1
     4    18    17 ar
     5    18     3 ar
     6     5    20 1
     7     5     1 1
     8    20     3 1
     9     9    10 1
    10    17    21 ar
    11    16    10 ar
    12    16    15 ar
    13    10    11 ar
    14     3     2 ar
    15    15    14 ar
    16    11    12 1
    17    11    13 ar
    18    14    13 ar
    19     1    19 1
    20    21     4 ar
    21     2     4 ar
    22     2     6 1
    23    19     6 1
    24     1    22 1
    25     1    23 1
    26     4    24 1
    27     5    25 1
    28     5    26 1
    29     7    41 1
    30     7    27 1
    31     7    28 1
    32     8    29 1
    33     9    30 1
    34    12    31 1
    35    12    32 1
    36    12    33 1
    37    14    34 1
    38    15    35 1
    39    16    36 1
    40    18    37 1
    41    19    38 1
    42    19    39 1
    43    21    40 1
@<TRIPOS>SUBSTRUCTURE
     1 6RS         1 TEMP              0 ****  ****    0 ROOT
