@<TRIPOS>MOLECULE
molecule
   39    43     1     0     0
SMALL
bcc


@<TRIPOS>ATOM
      1 C11          0.0000     0.0000     0.0000 ca         1 6RT       0.887400
      2 C12          0.2360     0.0110    -2.3370 cx         1 6RT       0.065050
      3 C13         -0.5040    -1.2610    -1.9170 cx         1 6RT       0.065050
      4 C14         -0.0040     0.0000     2.3030 ca         1 6RT       0.887400
      5 N1           1.3280     0.0000     0.0000 nb         1 6RT      -0.834500
      6 C16         -0.0120    -0.8170     4.5050 cx         1 6RT       0.065050
      7 C15         -1.2590    -1.3270     3.7800 cx         1 6RT       0.065050
      8 N3          -0.6660     0.0010     1.1500 nb         1 6RT      -0.768000
      9 N4          -0.6980     0.0010     3.4970 nm         1 6RT      -0.609800
     10 N5           1.3250     0.0000     2.3080 nb         1 6RT      -0.834500
     11 N2          -0.6890     0.0060    -1.1970 nm         1 6RT      -0.609800
     12 C            1.9940     0.0000     1.1550 ca         1 6RT       0.844500
     13 C1           3.4680    -0.0010     1.1580 cc         1 6RT      -0.194800
     14 N            4.2770     0.0610     2.2690 na         1 6RT       0.046800
     15 C4           5.5750     0.0370     1.8620 cc         1 6RT      -0.118300
     16 C3           5.6010    -0.0400     0.5120 cd         1 6RT      -0.223000
     17 C2           4.2750    -0.0700     0.0590 cd         1 6RT      -0.124000
     18 C5           3.8370     0.1360     3.5980 ca         1 6RT      -0.009200
     19 C10          2.9830     1.1570     3.9910 ca         1 6RT      -0.101500
     20 C9           2.5510     1.2290     5.3010 ca         1 6RT      -0.126500
     21 C8           2.9690     0.2840     6.2210 ca         1 6RT      -0.127000
     22 C7           3.8200    -0.7330     5.8320 ca         1 6RT      -0.126500
     23 C6           4.2510    -0.8140     4.5220 ca         1 6RT      -0.101500
     24 H2          -0.1310     0.4910    -3.2370 h1         1 6RT       0.099825
     25 H3          -1.3240    -1.5600    -2.5580 h1         1 6RT       0.099825
     26 H4           0.0960    -2.0060    -1.4080 h1         1 6RT       0.099825
     27 H5           0.9260    -1.2600     4.1910 h1         1 6RT       0.099825
     28 H6          -0.1590    -0.5140     5.5340 h1         1 6RT       0.099825
     29 H7          -1.0860    -2.0810     3.0220 h1         1 6RT       0.099825
     30 H8          -2.1710    -1.3350     4.3650 h1         1 6RT       0.099825
     31 H9           6.4420     0.0740     2.5100 h4         1 6RT       0.174000
     32 H10          6.4880    -0.0770    -0.1080 ha         1 6RT       0.155000
     33 H11          3.9500    -0.1300    -0.9730 ha         1 6RT       0.163000
     34 H12          2.6550     1.8980     3.2710 ha         1 6RT       0.143000
     35 H13          1.8840     2.0250     5.6080 ha         1 6RT       0.137000
     36 H14          2.6310     0.3440     7.2480 ha         1 6RT       0.132000
     37 H15          4.1440    -1.4730     6.5540 ha         1 6RT       0.137000
     38 H16          4.9180    -1.6110     4.2180 ha         1 6RT       0.143000
     39 H1           1.2890     0.0450    -2.0870 h1         1 6RT       0.099825
@<TRIPOS>BOND
     1     2    11 1   
     2     2     3 1   
     3     6     9 1   
     4     6     7 1   
     5    20    19 ar  
     6    20    21 ar  
     7    19    18 ar  
     8     8     4 ar  
     9     8     1 ar  
    10    11     1 1   
    11    11     3 1   
    12     9     4 1   
    13     9     7 1   
    14     4    10 ar  
    15     1     5 ar  
    16    21    22 ar  
    17    10    12 ar  
    18     5    12 ar  
    19    12    13 1   
    20    18    14 1   
    21    18    23 ar  
    22    13    14 1   
    23    13    17 2   
    24    14    15 1   
    25    22    23 ar  
    26    17    16 1   
    27    15    16 2   
    28     2    39 1   
    29     2    24 1   
    30     3    25 1   
    31     3    26 1   
    32     6    27 1   
    33     6    28 1   
    34     7    29 1   
    35     7    30 1   
    36    15    31 1   
    37    16    32 1   
    38    17    33 1   
    39    19    34 1   
    40    20    35 1   
    41    21    36 1   
    42    22    37 1   
    43    23    38 1   
@<TRIPOS>SUBSTRUCTURE
     1 6RT         1 TEMP              0 ****  ****    0 ROOT
