@<TRIPOS>MOLECULE
6RU
   43    45     1     0     0
SMALL
bcc


@<TRIPOS>ATOM
      1 C1           0.0000     0.0000     0.0000 c3         1 6RU       0.204100
      2 C2           2.1550    -0.0010    -1.1960 ca         1 6RU       0.799900
      3 C3           4.1480    -0.0090    -2.3510 ca         1 6RU       0.823500
      4 C4           5.6230    -0.0160    -2.3540 cc         1 6RU      -0.396800
      5 C5           6.4300     0.1390    -1.2630 cd         1 6RU      -0.108000
      6 C6           7.7560     0.0680    -1.7120 cd         1 6RU      -0.190000
      7 C7           7.7290    -0.1270    -3.0510 cc         1 6RU      -0.324300
      8 C8           5.9910    -0.3770    -4.7710 ca         1 6RU      -0.178200
      9 C9           5.1770    -1.4580    -5.0810 ca         1 6RU      -0.063500
     10 C10          4.7500    -1.6480    -6.3800 ca         1 6RU      -0.104500
     11 C11          5.1310    -0.7630    -7.3720 ca         1 6RU      -0.093000
     12 C12          5.9420     0.3150    -7.0660 ca         1 6RU      -0.104500
     13 C16         -0.0020    -0.1260    -4.6920 c3         1 6RU       0.204100
     14 C15          2.1810     0.1190    -5.9610 c3         1 6RU       0.204100
     15 C14          2.1510    -0.0020    -3.5000 ca         1 6RU       0.799900
     16 N5           1.4890    -0.0020    -2.3470 nb         1 6RU      -0.824000
     17 N            1.4650     0.0000     0.0000 nh         1 6RU      -0.442800
     18 C            2.1980     0.0000     1.2680 c3         1 6RU       0.204100
     19 N3           3.4790    -0.0040    -3.5050 nb         1 6RU      -0.799500
     20 N1           3.4830    -0.0070    -1.1960 nb         1 6RU      -0.799500
     21 N2           6.4310    -0.1860    -3.4540 na         1 6RU       0.599800
     22 C13          6.3730     0.5110    -5.7680 ca         1 6RU      -0.063500
     23 H1          -0.3610     0.8810    -0.5170 h1         1 6RU       0.012033
     24 H2          -0.3610    -0.8880    -0.5050 h1         1 6RU       0.012033
     25 H3          -0.3610     0.0070     1.0210 h1         1 6RU       0.012033
     26 H4           6.1050     0.2890    -0.2410 ha         1 6RU       0.135000
     27 H5           8.6440     0.1560    -1.0970 ha         1 6RU       0.125000
     28 H6           8.5960    -0.2250    -3.6930 h4         1 6RU       0.145000
     29 H7           4.8780    -2.1520    -4.3050 ha         1 6RU       0.114500
     30 H8           4.1150    -2.4910    -6.6230 ha         1 6RU       0.106500
     31 H9           4.7940    -0.9140    -8.3900 ha         1 6RU       0.103000
     32 H10          6.2390     1.0070    -7.8450 ha         1 6RU       0.106500
     33 H11         -0.4380     0.7470    -4.2230 h1         1 6RU       0.012033
     34 H12         -0.2770    -1.0130    -4.1330 h1         1 6RU       0.012033
     35 H13         -0.3700    -0.2120    -5.7080 h1         1 6RU       0.012033
     36 H14          3.0780     0.7080    -5.8090 h1         1 6RU       0.012033
     37 H15          2.4550    -0.8870    -6.2550 h1         1 6RU       0.012033
     38 H16          1.5800     0.5720    -6.7400 h1         1 6RU       0.012033
     39 H17          1.4950     0.0020     2.0920 h1         1 6RU       0.012033
     40 H18          2.8230     0.8840     1.3240 h1         1 6RU       0.012033
     41 H19          2.8200    -0.8850     1.3260 h1         1 6RU       0.012033
     42 H20          7.0080     1.3550    -5.5290 ha         1 6RU       0.114500
     43 N4           1.4570    -0.0030    -4.6930 nh         1 6RU      -0.442800
@<TRIPOS>BOND
     1     1    17 1   
     2     1    23 1   
     3     1    24 1   
     4     1    25 1   
     5     2    16 ar  
     6     2    17 1   
     7     2    20 ar  
     8     3     4 1   
     9     3    19 ar  
    10     3    20 ar  
    11     4     5 2   
    12     4    21 1   
    13     5     6 1   
    14     5    26 1   
    15     6     7 2   
    16     6    27 1   
    17     7    21 1   
    18     7    28 1   
    19     8     9 ar  
    20     8    21 1   
    21     8    22 ar  
    22     9    10 ar  
    23     9    29 1   
    24    10    11 ar  
    25    10    30 1   
    26    11    12 ar  
    27    11    31 1   
    28    12    22 ar  
    29    12    32 1   
    30    13    33 1   
    31    13    34 1   
    32    13    35 1   
    33    13    43 1   
    34    14    36 1   
    35    14    37 1   
    36    14    38 1   
    37    14    43 1   
    38    15    16 ar  
    39    15    19 ar  
    40    15    43 1   
    41    17    18 1   
    42    18    39 1   
    43    18    40 1   
    44    18    41 1   
    45    22    42 1   
@<TRIPOS>SUBSTRUCTURE
     1 6RU         1 TEMP              0 ****  ****    0 ROOT
