@<TRIPOS>MOLECULE
molecule
   38    41     1     0     0
SMALL
bcc


@<TRIPOS>ATOM
      1 C4           0.0000     0.0000     0.0000 cc         1 6RV       0.206600
      2 C6          -0.0590    -0.0090     2.3320 c          1 6RV       0.597500
      3 C11         -4.0370    -0.0040    -0.6620 c3         1 6RV       0.733200
      4 C8          -2.0970    -0.0140     0.9710 cc         1 6RV       0.041400
      5 C9          -2.5850     0.0000    -0.2570 cd         1 6RV      -0.186400
      6 N3           1.3200     0.0000     0.0000 nd         1 6RV      -0.322600
      7 C1           1.3360    -0.0020     2.3340 cc         1 6RV      -0.324200
      8 C2           2.0140     0.0000     1.1330 cd         1 6RV       0.233400
      9 N5          -0.7350    -0.0070     1.1460 n          1 6RV      -0.097200
     10 O7          -0.6730    -0.0200     3.3870 o          1 6RV      -0.653500
     11 S10         -1.1730     0.0020    -1.3280 ss         1 6RV      -0.009800
     12 F12         -4.2610    -1.0360    -1.5800 f          1 6RV      -0.205633
     13 F13         -4.8360    -0.2050     0.4690 f          1 6RV      -0.205633
     14 F14         -4.3610     1.2220    -1.2510 f          1 6RV      -0.205633
     15 C15         -3.0210    -0.0190     2.1610 cx         1 6RV      -0.239400
     16 C16         -4.0590     1.1000     2.2550 cx         1 6RV      -0.072400
     17 C17         -2.8500     1.0970     3.1930 cx         1 6RV      -0.233600
     18 C18         -3.0870     0.7590     4.6060 c1         1 6RV       0.245700
     19 N19         -3.2590     0.4820     5.6940 n1         1 6RV      -0.329800
     20 C20          3.5200    -0.0010     1.1060 c3         1 6RV       0.101500
     21 N21          4.0060    -1.3770     0.9750 na         1 6RV       0.076400
     22 C22          4.2830    -2.2200     1.9910 cc         1 6RV       0.009100
     23 C23          4.7040    -3.3900     1.4520 cd         1 6RV      -0.285300
     24 C24          4.6830    -3.2550     0.0600 cd         1 6RV       0.273600
     25 N25          4.2580    -2.0510    -0.2270 nc         1 6RV      -0.425800
     26 C26          5.0730    -4.3150    -0.9370 c3         1 6RV       0.618600
     27 F27          5.5800    -3.7070    -2.0910 f          1 6RV      -0.210300
     28 F28          6.0520    -5.1430    -0.3780 f          1 6RV      -0.210300
     29 F29          3.9490    -5.0800    -1.2680 f          1 6RV      -0.210300
     30 Cl3          4.1310    -1.8700     3.6840 cl         1 6RV      -0.038400
     31 H1           1.8060    -0.0510     3.3090 ha         1 6RV       0.188000
     32 H3          -2.4980     0.8510     2.5380 hc         1 6RV       0.275700
     33 H4          -5.1380     1.0100     2.2160 hc         1 6RV       0.100700
     34 H5          -3.8240     2.1530     2.1520 hc         1 6RV       0.100700
     35 H6          -1.8070     0.9600     3.4500 hc         1 6RV       0.282700
     36 H7           3.9770     0.6250     1.8620 h1         1 6RV       0.099700
     37 H8           4.0580     0.3880     0.2500 h1         1 6RV       0.099700
     38 H9           4.9520    -4.1200     2.2130 ha         1 6RV       0.184000
@<TRIPOS>BOND
     1    12     3 1
     2    16    15 1
     3    16    17 1
     4    15     4 1
     5    15    17 1
     6    14     3 1
     7    10     2 2
     8     3     5 1
     9     3    13 1
    10    19    18 3
    11    18    17 1
    12     4     5 2
    13     4     9 1
    14     5    11 1
    15     2     9 1
    16     2     7 1
    17     9     1 1
    18     7     8 2
    19     1    11 1
    20     1     6 2
    21    30    22 1
    22     8     6 1
    23     8    20 1
    24    20    21 1
    25    22    21 1
    26    22    23 2
    27    21    25 1
    28    23    24 1
    29    25    24 2
    30    24    26 1
    31    27    26 1
    32    26    29 1
    33    26    28 1
    34     7    31 1
    35    15    32 1
    36    16    33 1
    37    16    34 1
    38    17    35 1
    39    20    36 1
    40    20    37 1
    41    23    38 1
@<TRIPOS>SUBSTRUCTURE
     1 6RV         1 TEMP              0 ****  ****    0 ROOT
