@<TRIPOS>MOLECULE
6RV
   38    42     1     0     0
SMALL
bcc


@<TRIPOS>ATOM
      1 C4           0.0000     0.0000     0.0000 c2         1 6RV      -0.192000
      2 C6          -0.0590    -0.0090     2.3320 c2         1 6RV       0.251000
      3 C11         -4.0370    -0.0040    -0.6620 c3         1 6RV       0.488000
      4 C8          -2.0970    -0.0140     0.9710 c2         1 6RV      -0.075000
      5 C9          -2.5850     0.0000    -0.2570 c2         1 6RV      -0.379000
      6 N3           1.3200     0.0000     0.0000 n2         1 6RV      -0.036000
      7 C1           1.3360    -0.0020     2.3340 c2         1 6RV      -0.281000
      8 C2           2.0140     0.0000     1.1330 c2         1 6RV       0.044000
      9 N5          -0.7350    -0.0070     1.1460 n          1 6RV       0.283000
     10 O7          -0.6730    -0.0200     3.3870 o          1 6RV      -0.415000
     11 S10         -1.1730     0.0020    -1.3280 ss         1 6RV       0.374000
     12 F12         -4.2610    -1.0360    -1.5800 f          1 6RV      -0.125333
     13 F13         -4.8360    -0.2050     0.4690 f          1 6RV      -0.125333
     14 F14         -4.3610     1.2220    -1.2510 f          1 6RV      -0.125333
     15 C15         -3.0210    -0.0190     2.1610 cx         1 6RV      -0.306000
     16 C16         -4.0590     1.1000     2.2550 cx         1 6RV      -0.088000
     17 C17         -2.8500     1.0970     3.1930 DU         1 6RV      -0.123000
     18 C18         -3.0870     0.7590     4.6060 c1         1 6RV      -0.160000
     19 N19         -3.2590     0.4820     5.6940 n1         1 6RV      -0.011000
     20 C20          3.5200    -0.0010     1.1060 c3         1 6RV      -0.047000
     21 N21          4.0060    -1.3770     0.9750 na         1 6RV       0.293000
     22 C22          4.2830    -2.2200     1.9910 c2         1 6RV      -0.295000
     23 C23          4.7040    -3.3900     1.4520 c2         1 6RV      -0.190000
     24 C24          4.6830    -3.2550     0.0600 c2         1 6RV      -0.144000
     25 N25          4.2580    -2.0510    -0.2270 n2         1 6RV      -0.125000
     26 C26          5.0730    -4.3150    -0.9370 c3         1 6RV       0.455000
     27 F27          5.5800    -3.7070    -2.0910 f          1 6RV      -0.130667
     28 F28          6.0520    -5.1430    -0.3780 f          1 6RV      -0.130667
     29 F29          3.9490    -5.0800    -1.2680 f          1 6RV      -0.130667
     30 Cl3          4.1310    -1.8700     3.6840 cl         1 6RV       0.148000
     31 H1           1.8060    -0.0510     3.3090 ha         1 6RV       0.164000
     32 H3          -2.4980     0.8510     2.5380 DU         1 6RV       0.252000
     33 H4          -5.1380     1.0100     2.2160 hc         1 6RV       0.109000
     34 H5          -3.8240     2.1530     2.1520 hc         1 6RV       0.109000
     35 H6          -1.8070     0.9600     3.4500 ha         1 6RV       0.306000
     36 H7           3.9770     0.6250     1.8620 h1         1 6RV       0.099500
     37 H8           4.0580     0.3880     0.2500 h1         1 6RV       0.099500
     38 H9           4.9520    -4.1200     2.2130 ha         1 6RV       0.158000
@<TRIPOS>BOND
     1     1     6 1   
     2     1     9 1   
     3     1    11 1   
     4     2     7 1   
     5     2     9 1   
     6     2    10 1   
     7     3     5 1   
     8     3    12 1   
     9     3    13 1   
    10     3    14 1   
    11     4     5 1   
    12     4     9 1   
    13     4    15 1   
    14     5    11 1   
    15     6     8 1   
    16     7     8 1   
    17     7    31 1   
    18     8    20 1   
    19    15    16 1   
    20    15    17 1   
    21    15    32 1   
    22    16    17 1   
    23    16    33 1   
    24    16    34 1   
    25    17    18 1   
    26    17    32 1   
    27    17    35 1   
    28    18    19 1   
    29    20    21 1   
    30    20    36 1   
    31    20    37 1   
    32    21    22 1   
    33    21    25 1   
    34    22    23 1   
    35    22    30 1   
    36    23    24 1   
    37    23    38 1   
    38    24    25 1   
    39    24    26 1   
    40    26    27 1   
    41    26    28 1   
    42    26    29 1   
@<TRIPOS>SUBSTRUCTURE
     1 6RV         1 TEMP              0 ****  ****    0 ROOT
