@<TRIPOS>MOLECULE
molecule
   35    36     1     0     0
SMALL
bcc


@<TRIPOS>ATOM
      1 C10          0.0000     0.0000     0.0000 c3         1 6RW      -0.092400
      2 C11          1.5420     0.0000     0.0000 c3         1 6RW      -0.076400
      3 C12          1.9220     0.0000     1.5020 c3         1 6RW      -0.064400
      4 C13          0.8510     0.9280     2.1250 c3         1 6RW      -0.222900
      5 C02         -3.1660    -0.9310     3.4410 ca         1 6RW       0.376600
      6 C03         -2.4100    -0.0070     2.7320 ca         1 6RW       0.064300
      7 C04         -2.8490     1.3150     2.6650 ca         1 6RW      -0.147000
      8 C05         -4.0260     1.6510     3.3120 ca         1 6RW      -0.213300
      9 C06         -4.7230     0.6730     3.9970 ca         1 6RW       0.375200
     10 N07         -4.2850    -0.5700     4.0370 nb         1 6RW      -0.661000
     11 N08         -1.2280    -0.3940     2.0960 nu         1 6RW      -0.845600
     12 C09         -0.4400     0.5900     1.3510 c3         1 6RW       0.271500
     13 S14          0.6460     0.5650     3.8910 s6         1 6RW       1.133000
     14 O15         -0.3620     1.4190     4.4150 o          1 6RW      -0.613300
     15 O16          0.5170    -0.8400     4.0520 o          1 6RW      -0.613300
     16 C17          2.2490     1.0800     4.5670 c3         1 6RW      -0.235300
     17 H1          -0.3700    -1.0140    -0.0990 hc         1 6RW       0.057200
     18 H2          -0.3700     0.6170    -0.8100 hc         1 6RW       0.057200
     19 H4           1.9200    -0.8920    -0.4850 hc         1 6RW       0.050700
     20 H5           1.9200     0.8920    -0.4850 hc         1 6RW       0.050700
     21 H6           2.9140     0.4110     1.6450 hc         1 6RW       0.058200
     22 H7           1.8490    -0.9990     1.9140 hc         1 6RW       0.058200
     23 H8           1.1190     1.9670     1.9750 h1         1 6RW       0.101700
     24 H9          -2.5620    -2.7550     2.5240 hc         1 6RW       0.052700
     25 H10         -3.4540    -2.9540     4.0390 hc         1 6RW       0.052700
     26 H11         -1.7700    -2.4110     4.0680 hc         1 6RW       0.052700
     27 H12         -2.2820     2.0610     2.1200 ha         1 6RW       0.134000
     28 H13         -4.3960     2.6680     3.2830 ha         1 6RW       0.134000
     29 H14         -5.6450     0.9300     4.5030 h4         1 6RW       0.019100
     30 H15         -0.9410    -1.3530     2.1160 hn         1 6RW       0.461800
     31 H16         -1.0190     1.4910     1.1890 h1         1 6RW       0.079700
     32 H18          2.5360     2.0300     4.1330 h1         1 6RW       0.096033
     33 H19          2.1700     1.1840     5.6430 h1         1 6RW       0.096033
     34 H20          2.9970     0.3330     4.3300 h1         1 6RW       0.096033
     35 C01         -2.7060    -2.3630     3.5240 c3         1 6RW      -0.143400
@<TRIPOS>BOND
     1     1     2 1
     2     2     3 1
     3     3     4 1
     4     4    12 1
     5     4    13 1
     6    35     5 1
     7     5     6 ar
     8     5    10 ar
     9     6     7 ar
    10     6    11 1
    11     7     8 ar
    12     8     9 ar
    13     9    10 ar
    14    11    12 1
    15    13    14 2
    16    13    15 2
    17    13    16 1
    18     1    17 1
    19     1    18 1
    20     2    19 1
    21     2    20 1
    22     3    21 1
    23     3    22 1
    24     4    23 1
    25    35    24 1
    26    35    25 1
    27    35    26 1
    28     7    27 1
    29     8    28 1
    30     9    29 1
    31    11    30 1
    32    12    31 1
    33    16    32 1
    34    16    33 1
    35    16    34 1
    36     1    12 1
@<TRIPOS>SUBSTRUCTURE
     1 6RW         1 TEMP              0 ****  ****    0 ROOT
