@<TRIPOS>MOLECULE
6RW
   35    36     1     0     0
SMALL
bcc


@<TRIPOS>ATOM
      1 C10          0.0000     0.0000     0.0000 c3         1 6RW      -0.039400
      2 C11          1.5420     0.0000     0.0000 c3         1 6RW      -0.019400
      3 C12          1.9220     0.0000     1.5020 c3         1 6RW      -0.000400
      4 C13          0.8510     0.9280     2.1250 c3         1 6RW      -0.058900
      5 C02         -3.1660    -0.9310     3.4410 ca         1 6RW       0.320600
      6 C03         -2.4100    -0.0070     2.7320 ca         1 6RW      -0.048700
      7 C04         -2.8490     1.3150     2.6650 ca         1 6RW      -0.134000
      8 C05         -4.0260     1.6510     3.3120 ca         1 6RW      -0.177300
      9 C06         -4.7230     0.6730     3.9970 ca         1 6RW       0.349200
     10 N07         -4.2850    -0.5700     4.0370 nb         1 6RW      -0.544000
     11 N08         -1.2280    -0.3940     2.0960 nu         1 6RW      -0.451600
     12 C09         -0.4400     0.5900     1.3510 c3         1 6RW       0.175500
     13 S14          0.6460     0.5650     3.8910 s6         1 6RW       0.804000
     14 O15         -0.3620     1.4190     4.4150 o          1 6RW      -0.583800
     15 O16          0.5170    -0.8400     4.0520 o          1 6RW      -0.583800
     16 C17          2.2490     1.0800     4.5670 c3         1 6RW       0.012700
     17 H1          -0.3700    -1.0140    -0.0990 hc         1 6RW       0.024700
     18 H2          -0.3700     0.6170    -0.8100 hc         1 6RW       0.024700
     19 H4           1.9200    -0.8920    -0.4850 hc         1 6RW       0.018700
     20 H5           1.9200     0.8920    -0.4850 hc         1 6RW       0.018700
     21 H6           2.9140     0.4110     1.6450 hc         1 6RW       0.029200
     22 H7           1.8490    -0.9990     1.9140 hc         1 6RW       0.029200
     23 H8           1.1190     1.9670     1.9750 h1         1 6RW       0.075700
     24 H9          -2.5620    -2.7550     2.5240 hc         1 6RW       0.016033
     25 H10         -3.4540    -2.9540     4.0390 hc         1 6RW       0.016033
     26 H11         -1.7700    -2.4110     4.0680 hc         1 6RW       0.016033
     27 H12         -2.2820     2.0610     2.1200 ha         1 6RW       0.114000
     28 H13         -4.3960     2.6680     3.2830 ha         1 6RW       0.104000
     29 H14         -5.6450     0.9300     4.5030 h4         1 6RW      -0.023900
     30 H15         -0.9410    -1.3530     2.1160 hn         1 6RW       0.327800
     31 H16         -1.0190     1.4910     1.1890 h1         1 6RW       0.055700
     32 H18          2.5360     2.0300     4.1330 h1         1 6RW       0.060367
     33 H19          2.1700     1.1840     5.6430 h1         1 6RW       0.060367
     34 H20          2.9970     0.3330     4.3300 h1         1 6RW       0.060367
     35 C01         -2.7060    -2.3630     3.5240 c3         1 6RW      -0.046400
@<TRIPOS>BOND
     1     1     2 1   
     2     1    12 1   
     3     1    17 1   
     4     1    18 1   
     5     2     3 1   
     6     2    19 1   
     7     2    20 1   
     8     3     4 1   
     9     3    21 1   
    10     3    22 1   
    11     4    12 1   
    12     4    13 1   
    13     4    23 1   
    14     5     6 ar  
    15     5    10 ar  
    16     5    35 1   
    17     6     7 ar  
    18     6    11 1   
    19     7     8 ar  
    20     7    27 1   
    21     8     9 ar  
    22     8    28 1   
    23     9    10 ar  
    24     9    29 1   
    25    11    12 1   
    26    11    30 1   
    27    12    31 1   
    28    13    14 2   
    29    13    15 2   
    30    13    16 1   
    31    16    32 1   
    32    16    33 1   
    33    16    34 1   
    34    24    35 1   
    35    25    35 1   
    36    26    35 1   
@<TRIPOS>SUBSTRUCTURE
     1 6RW         1 TEMP              0 ****  ****    0 ROOT
