@<TRIPOS>MOLECULE
molecule
   42    45     1     0     0
SMALL
bcc


@<TRIPOS>ATOM
      1 C10          0.0000     0.0000     0.0000 c          1 6RX       0.821500
      2 C13         -2.6680    -1.4350     1.1150 c3         1 6RX      -0.124100
      3 C21          1.2120     0.2750     4.8230 ce         1 6RX      -0.268400
      4 C22          1.5560     0.5960     6.1450 c          1 6RX       0.742800
      5 C24          4.1030    -1.5480     3.9430 ca         1 6RX      -0.100500
      6 C02          3.8420    -3.9140     4.2030 ca         1 6RX      -0.078300
      7 C03          2.4690    -3.7720     4.1190 ca         1 6RX      -0.130000
      8 C04          1.9140    -2.5170     3.9540 ca         1 6RX      -0.100500
      9 C05          2.7300    -1.4060     3.8600 ca         1 6RX      -0.082300
     10 C06          2.1250    -0.0400     3.6660 c3         1 6RX       0.153000
     11 C07          1.3320    -0.0180     2.3830 cc         1 6RX      -0.312400
     12 C08          2.0300    -0.0090     1.1590 c          1 6RX       0.721700
     13 N09          1.3460     0.0000     0.0000 ns         1 6RX      -0.561500
     14 N11         -0.6890     0.0000     1.1560 n          1 6RX      -0.381000
     15 C12         -2.1530     0.0050     1.1280 c3         1 6RX       0.096000
     16 O14         -0.6000     0.0060    -1.0560 o          1 6RX      -0.647500
     17 O15          3.2480    -0.0100     1.1490 o          1 6RX      -0.611500
     18 C16         -0.0290    -0.0060     2.3640 cd         1 6RX       0.307600
     19 N17         -0.7770     0.0020     3.5240 nu         1 6RX      -0.621800
     20 C18         -0.1390     0.2750     4.7000 c2         1 6RX       0.083800
     21 C19         -0.6960     0.6200     6.0500 c3         1 6RX       0.172600
     22 O20          0.4520     0.8050     6.8940 os         1 6RX      -0.376900
     23 O23          2.6970     0.6760     6.5610 o          1 6RX      -0.554500
     24 C25          4.6590    -2.8020     4.1150 ca         1 6RX      -0.130000
     25 H132        -3.0350    -1.6790     0.1250 hc         1 6RX       0.052033
     26 H131        -1.8620    -2.1090     1.3770 hc         1 6RX       0.052033
     27 H133        -3.4730    -1.5380     1.8330 hc         1 6RX       0.052033
     28 H241         4.7430    -0.6770     3.8710 ha         1 6RX       0.128000
     29 H012         5.4890    -5.2580     4.0940 hc         1 6RX       0.042367
     30 H011         4.3760    -5.5690     5.4330 hc         1 6RX       0.042367
     31 H013         3.9140    -6.0000     3.7800 hc         1 6RX       0.042367
     32 H031         1.8280    -4.6420     4.1920 ha         1 6RX       0.129000
     33 H041         0.8380    -2.4050     3.8880 ha         1 6RX       0.128000
     34 H061         2.9110     0.7040     3.6150 hc         1 6RX       0.094700
     35 H091         1.8420     0.0030    -0.8690 hn         1 6RX       0.367500
     36 H121        -2.5300     0.5150     2.0060 h1         1 6RX       0.073700
     37 H122        -2.4960     0.5190     0.2380 h1         1 6RX       0.073700
     38 H171        -1.6900    -0.4080     3.5330 hn         1 6RX       0.459800
     39 H191        -1.2710     1.5360     5.9950 h1         1 6RX       0.081200
     40 H192        -1.3070    -0.1940     6.4220 h1         1 6RX       0.081200
     41 H251         5.7340    -2.9140     4.1800 ha         1 6RX       0.129000
     42 C01          4.4480    -5.2810     4.3910 c3         1 6RX      -0.047800
@<TRIPOS>BOND
     1    42     6 1
     2    24     6 ar
     3    24     5 ar
     4     6     7 ar
     5     5     9 ar
     6    17    12 2
     7     7     8 ar
     8     9     8 ar
     9     9    10 1
    10    12    13 1
    11    12    11 1
    12    23     4 2
    13    10    11 1
    14    10     3 1
    15    13     1 1
    16    11    18 2
    17     4     3 1
    18     4    22 1
    19     3    20 2
    20     1    16 2
    21     1    14 1
    22    18    14 1
    23    18    19 1
    24    22    21 1
    25    20    19 1
    26    20    21 1
    27    14    15 1
    28    15     2 1
    29     2    25 1
    30     2    26 1
    31     2    27 1
    32     5    28 1
    33    42    29 1
    34    42    30 1
    35    42    31 1
    36     7    32 1
    37     8    33 1
    38    10    34 1
    39    13    35 1
    40    15    36 1
    41    15    37 1
    42    19    38 1
    43    21    39 1
    44    21    40 1
    45    24    41 1
@<TRIPOS>SUBSTRUCTURE
     1 6RX         1 TEMP              0 ****  ****    0 ROOT
