@<TRIPOS>MOLECULE
6RY
   38    40     1     0     0
SMALL
bcc


@<TRIPOS>ATOM
      1 C01          0.0000     0.0000     0.0000 c3         1 6RY      -0.020100
      2 C02          1.5310     0.0000     0.0000 c3         1 6RY       0.197800
      3 N03          2.0190     0.0000     1.3810 nu         1 6RY      -0.426600
      4 C04          2.1520    -1.2050     2.0750 ca         1 6RY      -0.038700
      5 C05          2.6150    -1.2180     3.3850 ca         1 6RY       0.292600
      6 C06          2.9750     0.0800     4.0610 c3         1 6RY      -0.034400
      7 N07          2.7420    -2.3530     4.0430 nb         1 6RY      -0.532000
      8 C08          2.4380    -3.5130     3.4920 ca         1 6RY       0.335200
      9 C09          1.9730    -3.5820     2.1920 ca         1 6RY      -0.171300
     10 C10          1.8190    -2.4120     1.4650 ca         1 6RY      -0.172000
     11 C11          2.0320     1.2300    -0.7100 ca         1 6RY      -0.106300
     12 C12          2.4530     1.1460    -2.0240 ca         1 6RY      -0.091000
     13 C13          2.9170     2.2760    -2.6790 ca         1 6RY       0.075100
     14 C14          2.9530     3.4950    -2.0140 ca         1 6RY       0.072100
     15 O15          3.3980     4.6180    -2.6410 os         1 6RY      -0.297900
     16 C16          4.1650     4.4270    -3.8350 c3         1 6RY       0.167400
     17 C17          3.4410     3.3960    -4.7110 c3         1 6RY       0.170400
     18 O18          3.3340     2.1750    -3.9710 os         1 6RY      -0.299900
     19 C19          2.5310     3.5730    -0.6950 ca         1 6RY      -0.096000
     20 C20          2.0660     2.4430    -0.0480 ca         1 6RY      -0.105000
     21 H1          -0.3610     0.4300    -0.9260 hc         1 6RY       0.013033
     22 H2          -0.3610    -1.0170     0.0900 hc         1 6RY       0.013033
     23 H3          -0.3610     0.5870     0.8360 hc         1 6RY       0.013033
     24 H4           1.8920    -0.8840    -0.5110 h1         1 6RY       0.041700
     25 H5           2.2780     0.8610     1.8200 hn         1 6RY       0.308800
     26 H6           3.3390    -0.1230     5.0610 hc         1 6RY       0.010367
     27 H7           2.0980     0.7130     4.1170 hc         1 6RY       0.010367
     28 H8           3.7470     0.5820     3.4900 hc         1 6RY       0.010367
     29 H9           2.5580    -4.4240     4.0650 h4         1 6RY      -0.020900
     30 H10          1.7250    -4.5390     1.7490 ha         1 6RY       0.106000
     31 H11          1.4560    -2.4370     0.4450 ha         1 6RY       0.121000
     32 H12          2.4280     0.1930    -2.5390 ha         1 6RY       0.120000
     33 H13          5.1510     4.0590    -3.5800 h1         1 6RY       0.026200
     34 H14          4.2460     5.3660    -4.3700 h1         1 6RY       0.026200
     35 H15          2.4460     3.7610    -4.9360 h1         1 6RY       0.027200
     36 H16          4.0280     3.2180    -5.6040 h1         1 6RY       0.027200
     37 H17          2.5560     4.5230    -0.1740 ha         1 6RY       0.117000
     38 H18          1.7150     2.5120     0.9740 ha         1 6RY       0.110000
@<TRIPOS>BOND
     1     1     2 1   
     2     1    21 1   
     3     1    22 1   
     4     1    23 1   
     5     2     3 1   
     6     2    11 1   
     7     2    24 1   
     8     3     4 1   
     9     3    25 1   
    10     4     5 ar  
    11     4    10 ar  
    12     5     6 1   
    13     5     7 ar  
    14     6    26 1   
    15     6    27 1   
    16     6    28 1   
    17     7     8 ar  
    18     8     9 ar  
    19     8    29 1   
    20     9    10 ar  
    21     9    30 1   
    22    10    31 1   
    23    11    12 ar  
    24    11    20 ar  
    25    12    13 ar  
    26    12    32 1   
    27    13    14 ar  
    28    13    18 1   
    29    14    15 1   
    30    14    19 ar  
    31    15    16 1   
    32    16    17 1   
    33    16    33 1   
    34    16    34 1   
    35    17    18 1   
    36    17    35 1   
    37    17    36 1   
    38    19    20 ar  
    39    19    37 1   
    40    20    38 1   
@<TRIPOS>SUBSTRUCTURE
     1 6RY         1 TEMP              0 ****  ****    0 ROOT
