@<TRIPOS>MOLECULE
6RZ
   31    31     1     0     0
SMALL
bcc


@<TRIPOS>ATOM
      1 C13          0.0000     0.0000     0.0000 ca         1 6RZ       0.340200
      2 C15         -0.0230     0.0100     2.3870 ca         1 6RZ      -0.169000
      3 C01          1.0690     1.4590     5.2160 c3         1 6RZ      -0.023100
      4 N08          2.1080     0.0150     3.5380 nu         1 6RZ      -0.434600
      5 C09          1.3690     0.0100     2.3530 ca         1 6RZ      -0.036700
      6 C02          1.4190     0.0210     4.8310 c3         1 6RZ       0.168500
      7 C03          2.3320    -0.5850     5.8990 c3         1 6RZ      -0.030600
      8 S04          2.7490    -2.2900     5.4420 s6         1 6RZ       0.797000
      9 O06          3.5260    -2.2640     4.2540 o          1 6RZ      -0.581800
     10 O07          1.5620    -3.0710     5.4780 o          1 6RZ      -0.581800
     11 C10          2.0130     0.0000     1.1210 ca         1 6RZ       0.309600
     12 C11          3.5180    -0.0010     1.0660 c3         1 6RZ      -0.041400
     13 N12          1.3190     0.0000     0.0000 nb         1 6RZ      -0.537000
     14 C14         -0.7110     0.0060     1.1860 ca         1 6RZ      -0.175300
     15 H1          -0.5340    -0.0020    -0.9430 h4         1 6RZ      -0.021900
     16 H2          -0.5540     0.0150     3.3310 ha         1 6RZ       0.118000
     17 H4           0.5390     1.4610     6.1610 hc         1 6RZ       0.012367
     18 H5           1.9790     2.0400     5.3110 hc         1 6RZ       0.012367
     19 H6           4.1420    -3.8180     6.6650 h1         1 6RZ       0.060700
     20 H7           4.6760    -2.1440     6.8680 h1         1 6RZ       0.060700
     21 H8           3.2590    -2.7330     7.7480 h1         1 6RZ       0.060700
     22 H9           3.1080     0.0450     3.5040 hn         1 6RZ       0.319800
     23 H10          0.5110    -0.5650     4.7580 h1         1 6RZ       0.056700
     24 H11          3.2410     0.0020     5.9720 h1         1 6RZ       0.069700
     25 H12          1.8220    -0.5800     6.8540 h1         1 6RZ       0.069700
     26 H13          3.8940    -0.9270     1.4840 hc         1 6RZ       0.014700
     27 H14          3.9010     0.8350     1.6380 hc         1 6RZ       0.014700
     28 H15          3.8420     0.0870     0.0360 hc         1 6RZ       0.014700
     29 H16         -1.7950     0.0060     1.1750 ha         1 6RZ       0.106000
     30 H3           0.4400     1.8960     4.4490 hc         1 6RZ       0.012367
     31 C05          3.8140    -2.7970     6.8190 c3         1 6RZ       0.013700
@<TRIPOS>BOND
     1     1    13 ar  
     2     1    14 ar  
     3     1    15 1   
     4     2     5 ar  
     5     2    14 ar  
     6     2    16 1   
     7     3     6 1   
     8     3    17 1   
     9     3    18 1   
    10     3    30 1   
    11     4     5 1   
    12     4     6 1   
    13     4    22 1   
    14     5    11 ar  
    15     6     7 1   
    16     6    23 1   
    17     7     8 1   
    18     7    24 1   
    19     7    25 1   
    20     8     9 2   
    21     8    10 2   
    22     8    31 1   
    23    11    12 1   
    24    11    13 ar  
    25    12    26 1   
    26    12    27 1   
    27    12    28 1   
    28    14    29 1   
    29    19    31 1   
    30    20    31 1   
    31    21    31 1   
@<TRIPOS>SUBSTRUCTURE
     1 6RZ         1 TEMP              0 ****  ****    0 ROOT
