@<TRIPOS>MOLECULE
molecule
   31    31     1     0     0
SMALL
bcc


@<TRIPOS>ATOM
      1 C13          0.0000     0.0000     0.0000 ca         1 6RZ       0.366200
      2 C15         -0.0230     0.0100     2.3870 ca         1 6RZ      -0.177000
      3 C01          1.0690     1.4590     5.2160 c3         1 6RZ      -0.107100
      4 N08          2.1080     0.0150     3.5380 nu         1 6RZ      -0.831600
      5 C09          1.3690     0.0100     2.3530 ca         1 6RZ       0.085300
      6 C02          1.4190     0.0210     4.8310 c3         1 6RZ       0.264500
      7 C03          2.3320    -0.5850     5.8990 c3         1 6RZ      -0.225600
      8 S04          2.7490    -2.2900     5.4420 s6         1 6RZ       1.110000
      9 O06          3.5260    -2.2640     4.2540 o          1 6RZ      -0.608300
     10 O07          1.5620    -3.0710     5.4780 o          1 6RZ      -0.608300
     11 C10          2.0130     0.0000     1.1210 ca         1 6RZ       0.367600
     12 C11          3.5180    -0.0010     1.0660 c3         1 6RZ      -0.140400
     13 N12          1.3190     0.0000     0.0000 nb         1 6RZ      -0.656000
     14 C14         -0.7110     0.0060     1.1860 ca         1 6RZ      -0.213300
     15 H1          -0.5340    -0.0020    -0.9430 h4         1 6RZ       0.020100
     16 H2          -0.5540     0.0150     3.3310 ha         1 6RZ       0.136000
     17 H4           0.5390     1.4610     6.1610 hc         1 6RZ       0.045367
     18 H5           1.9790     2.0400     5.3110 hc         1 6RZ       0.045367
     19 H6           4.1420    -3.8180     6.6650 h1         1 6RZ       0.097700
     20 H7           4.6760    -2.1440     6.8680 h1         1 6RZ       0.097700
     21 H8           3.2590    -2.7330     7.7480 h1         1 6RZ       0.097700
     22 H9           3.1080     0.0450     3.5040 hn         1 6RZ       0.454800
     23 H10          0.5110    -0.5650     4.7580 h1         1 6RZ       0.076700
     24 H11          3.2410     0.0020     5.9720 h1         1 6RZ       0.100200
     25 H12          1.8220    -0.5800     6.8540 h1         1 6RZ       0.100200
     26 H13          3.8940    -0.9270     1.4840 hc         1 6RZ       0.052033
     27 H14          3.9010     0.8350     1.6380 hc         1 6RZ       0.052033
     28 H15          3.8420     0.0870     0.0360 hc         1 6RZ       0.052033
     29 H16         -1.7950     0.0060     1.1750 ha         1 6RZ       0.134000
     30 H3           0.4400     1.8960     4.4490 hc         1 6RZ       0.045367
     31 C05          3.8140    -2.7970     6.8190 c3         1 6RZ      -0.232300
@<TRIPOS>BOND
     1     9     8 2   
     2    10     8 2   
     3     8     7 1   
     4     8    31 1   
     5     7     6 1   
     6     6     4 1   
     7     6     3 1   
     8     4     5 1   
     9     2     5 ar  
    10     2    14 ar  
    11     5    11 ar  
    12    14     1 ar  
    13    11    12 1   
    14    11    13 ar  
    15     1    13 ar  
    16     1    15 1   
    17     2    16 1   
    18     3    30 1   
    19     3    17 1   
    20     3    18 1   
    21    31    19 1   
    22    31    20 1   
    23    31    21 1   
    24     4    22 1   
    25     6    23 1   
    26     7    24 1   
    27     7    25 1   
    28    12    26 1   
    29    12    27 1   
    30    12    28 1   
    31    14    29 1   
@<TRIPOS>SUBSTRUCTURE
     1 6RZ         1 TEMP              0 ****  ****    0 ROOT
