@<TRIPOS>MOLECULE
6S0
   34    36     1     0     0
SMALL
bcc


@<TRIPOS>ATOM
      1 C01          0.0000     0.0000     0.0000 c3         1 6S0      -0.020100
      2 C02          1.5300     0.0000     0.0000 c3         1 6S0       0.202800
      3 N03          2.0180     0.0000     1.3820 nu         1 6S0      -0.430600
      4 C04          2.1520    -1.2050     2.0750 ca         1 6S0      -0.040700
      5 C05          2.6140    -1.2170     3.3850 ca         1 6S0       0.296600
      6 C06          2.9730     0.0810     4.0610 c3         1 6S0      -0.035400
      7 N07          2.7400    -2.3520     4.0430 nb         1 6S0      -0.531000
      8 C08          2.4370    -3.5120     3.4920 ca         1 6S0       0.339200
      9 C09          1.9720    -3.5810     2.1930 ca         1 6S0      -0.172300
     10 C10          1.8180    -2.4120     1.4650 ca         1 6S0      -0.170000
     11 C11          2.0320     1.2310    -0.7100 ca         1 6S0      -0.219600
     12 C12          2.4600     1.1560    -2.0210 ca         1 6S0      -0.012000
     13 C13          2.9190     2.3200    -2.6450 ca         1 6S0      -0.091400
     14 C14          2.9330     3.5220    -1.9310 ca         1 6S0       0.398100
     15 C15          3.4380     4.6210    -2.7360 cc         1 6S0      -0.204800
     16 C16          3.7850     4.2940    -3.9680 cd         1 6S0       0.002600
     17 S17          3.5270     2.5870    -4.2730 ss         1 6S0      -0.206500
     18 N18          2.5030     3.5330    -0.6550 nb         1 6S0      -0.532000
     19 C19          2.0660     2.4540    -0.0570 ca         1 6S0       0.403200
     20 H1          -0.3610     0.4410    -0.9210 hc         1 6S0       0.015033
     21 H2          -0.3610    -1.0180     0.0790 hc         1 6S0       0.015033
     22 H3          -0.3610     0.5770     0.8420 hc         1 6S0       0.015033
     23 H4           1.8910    -0.8840    -0.5110 h1         1 6S0       0.041700
     24 H5           2.2720     0.8620     1.8230 hn         1 6S0       0.308800
     25 H6           3.7590     0.5740     3.5010 hc         1 6S0       0.011367
     26 H7           2.1010     0.7220     4.1000 hc         1 6S0       0.011367
     27 H8           3.3200    -0.1200     5.0670 hc         1 6S0       0.011367
     28 H9           2.5570    -4.4230     4.0660 h4         1 6S0      -0.019900
     29 H10          1.7230    -4.5380     1.7500 ha         1 6S0       0.107000
     30 H11          1.4550    -2.4370     0.4450 ha         1 6S0       0.120000
     31 H12          2.6380     0.1900    -2.4770 ha         1 6S0       0.120000
     32 H13          3.5230     5.6310    -2.3550 ha         1 6S0       0.131000
     33 H14          4.1790     4.9920    -4.6960 h4         1 6S0       0.151000
     34 H15          1.7210     2.5180     0.9680 h4         1 6S0      -0.014900
@<TRIPOS>BOND
     1     1     2 1   
     2     1    20 1   
     3     1    21 1   
     4     1    22 1   
     5     2     3 1   
     6     2    11 1   
     7     2    23 1   
     8     3     4 1   
     9     3    24 1   
    10     4     5 ar  
    11     4    10 ar  
    12     5     6 1   
    13     5     7 ar  
    14     6    25 1   
    15     6    26 1   
    16     6    27 1   
    17     7     8 ar  
    18     8     9 ar  
    19     8    28 1   
    20     9    10 ar  
    21     9    29 1   
    22    10    30 1   
    23    11    12 ar  
    24    11    19 ar  
    25    12    13 ar  
    26    12    31 1   
    27    13    14 ar  
    28    13    17 1   
    29    14    15 1   
    30    14    18 ar  
    31    15    16 2   
    32    15    32 1   
    33    16    17 1   
    34    16    33 1   
    35    18    19 ar  
    36    19    34 1   
@<TRIPOS>SUBSTRUCTURE
     1 6S0         1 TEMP              0 ****  ****    0 ROOT
