@<TRIPOS>MOLECULE
molecule
   34    36     1     0     0
SMALL
bcc


@<TRIPOS>ATOM
      1 C01          0.0000     0.0000     0.0000 c3         1 6S0      -0.110100
      2 C02          1.5300     0.0000     0.0000 c3         1 6S0       0.292800
      3 N03          2.0180     0.0000     1.3820 nu         1 6S0      -0.821600
      4 C04          2.1520    -1.2050     2.0750 ca         1 6S0       0.086300
      5 C05          2.6140    -1.2170     3.3850 ca         1 6S0       0.355600
      6 C06          2.9730     0.0810     4.0610 c3         1 6S0      -0.137400
      7 N07          2.7400    -2.3520     4.0430 nb         1 6S0      -0.653000
      8 C08          2.4370    -3.5120     3.4920 ca         1 6S0       0.363200
      9 C09          1.9720    -3.5810     2.1930 ca         1 6S0      -0.211300
     10 C10          1.8180    -2.4120     1.4650 ca         1 6S0      -0.179000
     11 C11          2.0320     1.2310    -0.7100 ca         1 6S0      -0.216600
     12 C12          2.4600     1.1560    -2.0210 ca         1 6S0      -0.051000
     13 C13          2.9190     2.3200    -2.6450 ca         1 6S0      -0.135400
     14 C14          2.9330     3.5220    -1.9310 ca         1 6S0       0.447100
     15 C15          3.4380     4.6210    -2.7360 cc         1 6S0      -0.235800
     16 C16          3.7850     4.2940    -3.9680 cd         1 6S0      -0.072400
     17 S17          3.5270     2.5870    -4.2730 ss         1 6S0      -0.093500
     18 N18          2.5030     3.5330    -0.6550 nb         1 6S0      -0.657000
     19 C19          2.0660     2.4540    -0.0570 ca         1 6S0       0.429200
     20 H1          -0.3610     0.4410    -0.9210 hc         1 6S0       0.046700
     21 H2          -0.3610    -1.0180     0.0790 hc         1 6S0       0.046700
     22 H3          -0.3610     0.5770     0.8420 hc         1 6S0       0.046700
     23 H4           1.8910    -0.8840    -0.5110 h1         1 6S0       0.063700
     24 H5           2.2720     0.8620     1.8230 hn         1 6S0       0.444800
     25 H6           3.7590     0.5740     3.5010 hc         1 6S0       0.048700
     26 H7           2.1010     0.7220     4.1000 hc         1 6S0       0.048700
     27 H8           3.3200    -0.1200     5.0670 hc         1 6S0       0.048700
     28 H9           2.5570    -4.4230     4.0660 h4         1 6S0       0.021100
     29 H10          1.7230    -4.5380     1.7500 ha         1 6S0       0.134000
     30 H11          1.4550    -2.4370     0.4450 ha         1 6S0       0.137000
     31 H12          2.6380     0.1900    -2.4770 ha         1 6S0       0.146000
     32 H13          3.5230     5.6310    -2.3550 ha         1 6S0       0.165000
     33 H14          4.1790     4.9920    -4.6960 h4         1 6S0       0.177000
     34 H15          1.7210     2.5180     0.9680 h4         1 6S0       0.024100
@<TRIPOS>BOND
     1     1     2 1   
     2    19    18 ar  
     3    19    11 ar  
     4     2    11 1   
     5     2     3 1   
     6    18    14 ar  
     7    11    12 ar  
     8     3     4 1   
     9    10     4 ar  
    10    10     9 ar  
    11     4     5 ar  
    12     9     8 ar  
    13     5     6 1   
    14     5     7 ar  
    15     8     7 ar  
    16    14    15 1   
    17    14    13 ar  
    18    12    13 ar  
    19    15    16 2   
    20    13    17 1   
    21    16    17 1   
    22     1    20 1   
    23     1    21 1   
    24     1    22 1   
    25     2    23 1   
    26     3    24 1   
    27     6    25 1   
    28     6    26 1   
    29     6    27 1   
    30     8    28 1   
    31     9    29 1   
    32    10    30 1   
    33    12    31 1   
    34    15    32 1   
    35    16    33 1   
    36    19    34 1   
@<TRIPOS>SUBSTRUCTURE
     1 6S0         1 TEMP              0 ****  ****    0 ROOT
