@<TRIPOS>MOLECULE
molecule
   58    63     1     0     0
SMALL
bcc


@<TRIPOS>ATOM
      1 C5           0.0000     0.0000     0.0000 ca         1 6S1      -0.137300
      2 C8           1.3800    -0.0020     2.3980 ca         1 6S1       0.058800
      3 C3          -2.6470    -0.4560    -2.1330 cy         1 6S1      -0.114400
      4 C6           1.3830     0.0000     0.0000 ca         1 6S1      -0.116500
      5 C1          -0.7510    -0.0010    -1.3060 cy         1 6S1       0.115500
      6 C17          3.3590     0.5700     5.3450 ca         1 6S1      -0.019900
      7 C14          0.0440    -4.6710     4.2400 ca         1 6S1       0.500200
      8 C9          -0.0080    -0.0070     2.3940 ca         1 6S1      -0.091500
      9 C4          -2.1320     0.6710    -1.2230 cy         1 6S1      -0.083400
     10 C13          0.6270    -2.8070     5.4710 ca         1 6S1       0.751200
     11 C7           2.0750     0.0000     1.1960 ca         1 6S1      -0.091500
     12 C2          -1.4950    -1.3160    -1.5890 cy         1 6S1      -0.083400
     13 C18          2.8690     1.0200     4.1030 ca         1 6S1       0.422800
     14 N1           0.0650     0.4700    -2.4340 nz         1 6S1      -0.789600
     15 C10         -0.6940    -0.0060     1.1950 ca         1 6S1      -0.116500
     16 N2           2.0780    -0.0010     3.6130 na         1 6S1      -0.207100
     17 N6           3.2000     2.2150     3.6470 nb         1 6S1      -0.714000
     18 C21          3.9970     3.0200     4.3360 cp         1 6S1       0.522800
     19 C22          4.3360     4.3540     3.7860 cp         1 6S1      -0.156500
     20 C23          3.8250     4.7530     2.5520 ca         1 6S1      -0.098500
     21 C24          4.1440     5.9960     2.0450 ca         1 6S1      -0.133000
     22 C25          4.9710     6.8460     2.7580 ca         1 6S1      -0.107000
     23 C26          5.4800     6.4560     3.9830 ca         1 6S1      -0.133000
     24 C27          5.1640     5.2180     4.5030 ca         1 6S1      -0.098500
     25 C20          4.5160     2.6360     5.5740 ca         1 6S1      -0.250300
     26 C19          4.2060     1.4040     6.0850 ca         1 6S1      -0.029000
     27 N5           2.8600    -0.6720     5.5520 nc         1 6S1      -0.580100
     28 C11          2.1040    -1.0170     4.5360 cd         1 6S1       0.507400
     29 C12          1.3920    -2.3020     4.4060 ca         1 6S1      -0.333200
     30 C16          1.4590    -3.0370     3.2180 ca         1 6S1      -0.031000
     31 C15          0.7710    -4.2360     3.1470 ca         1 6S1      -0.334300
     32 N4          -0.0100    -3.9600     5.3500 nb         1 6S1      -0.758000
     33 H1          -3.6240    -0.8230    -1.8410 hc         1 6S1       0.080200
     34 H2          -2.5460    -0.2290    -3.1870 hc         1 6S1       0.080200
     35 H3           1.9250     0.0010    -0.9380 ha         1 6S1       0.128000
     36 H4          -0.4930    -5.6100     4.1820 h4         1 6S1       0.032100
     37 H5          -0.5530    -0.0100     3.3310 ha         1 6S1       0.171500
     38 H6          -2.1590     1.6450    -1.6970 hc         1 6S1       0.092700
     39 H7          -2.5590     0.6410    -0.2280 hc         1 6S1       0.092700
     40 H8           3.1580     0.0020     1.1960 ha         1 6S1       0.171500
     41 H9          -1.7590    -1.8570    -0.6880 hc         1 6S1       0.092700
     42 H10         -1.0180    -1.9170    -2.3540 hc         1 6S1       0.092700
     43 H11         -0.5140     0.5740    -3.2440 hn         1 6S1       0.457133
     44 H12          0.7880    -0.1950    -2.6240 hn         1 6S1       0.457133
     45 H14         -1.7780    -0.0080     1.1920 ha         1 6S1       0.128000
     46 H15          3.1780     4.0880     1.9920 ha         1 6S1       0.137500
     47 H16          3.7470     6.3070     1.0860 ha         1 6S1       0.135000
     48 H17          5.2200     7.8200     2.3560 ha         1 6S1       0.137000
     49 H18          6.1250     7.1260     4.5390 ha         1 6S1       0.135000
     50 H19          5.5640     4.9140     5.4620 ha         1 6S1       0.137500
     51 H20          5.1660     3.3060     6.1240 ha         1 6S1       0.156000
     52 H21          4.5980     1.0870     7.0440 ha         1 6S1       0.161000
     53 H22          2.0370    -2.6780     2.3750 ha         1 6S1       0.131000
     54 H23          0.8040    -4.8310     2.2420 ha         1 6S1       0.140000
     55 H24         -0.0010    -2.4510     7.4170 hn         1 6S1       0.455800
     56 H25          1.0240    -1.2220     6.7510 hn         1 6S1       0.455800
     57 H13          0.4640     1.3600    -2.2080 hn         1 6S1       0.457133
     58 N3           0.5420    -2.0940     6.6560 nv         1 6S1      -0.984500
@<TRIPOS>BOND
     1    23    22 ar  
     2    23    24 ar  
     3    22    21 ar  
     4    24    19 ar  
     5    21    20 ar  
     6    19    20 ar  
     7    19    18 1   
     8    18    25 ar  
     9    18    17 ar  
    10    25    26 ar  
    11    17    13 ar  
    12    26     6 ar  
    13    13     6 ar  
    14    13    16 1   
    15     3     9 1   
    16     3    12 1   
    17     6    27 1   
    18     9     5 1   
    19     8    15 ar  
    20     8     2 ar  
    21    15     1 ar  
    22    16     2 1   
    23    16    28 1   
    24    12     5 1   
    25    27    28 2   
    26     2    11 ar  
    27     1     5 1   
    28     1     4 ar  
    29    11     4 ar  
    30     5    14 1   
    31    28    29 1   
    32    58    10 1   
    33    29    10 ar  
    34    29    30 ar  
    35    10    32 ar  
    36    30    31 ar  
    37    32     7 ar  
    38    31     7 ar  
    39     3    33 1   
    40     3    34 1   
    41     4    35 1   
    42     7    36 1   
    43     8    37 1   
    44     9    38 1   
    45     9    39 1   
    46    11    40 1   
    47    12    41 1   
    48    12    42 1   
    49    14    43 1   
    50    14    44 1   
    51    15    45 1   
    52    20    46 1   
    53    21    47 1   
    54    22    48 1   
    55    23    49 1   
    56    24    50 1   
    57    25    51 1   
    58    26    52 1   
    59    30    53 1   
    60    31    54 1   
    61    58    55 1   
    62    58    56 1   
    63    57    14 1   
@<TRIPOS>SUBSTRUCTURE
     1 6S1         1 TEMP              0 ****  ****    0 ROOT
