@<TRIPOS>MOLECULE
molecule
   50    53     1     0     0
SMALL
bcc


@<TRIPOS>ATOM
      1 CAT          0.0000     0.0000     0.0000 c3         1 6S3       0.163300
      2 CAU          1.5300     0.0000     0.0000 c3         1 6S3       0.160300
      3 NAV          2.0170     0.0000     1.3860 n3         1 6S3      -0.734600
      4 CAY          3.4840    -0.0770     1.4290 c3         1 6S3       0.152100
      5 CAW          1.5310     1.1820     2.1110 c3         1 6S3       0.160300
      6 CAX          0.0000     1.1830     2.1120 c3         1 6S3       0.163300
      7 NAS         -0.4870     1.1820     0.7260 nh         1 6S3      -0.594000
      8 CAP         -1.8790     1.2560     0.6850 ca         1 6S3       0.149600
      9 CAO         -2.5370     2.3060     1.3160 ca         1 6S3      -0.170000
     10 CAN         -3.9130     2.3810     1.2780 ca         1 6S3      -0.074500
     11 CAQ         -2.6050     0.2810     0.0100 ca         1 6S3      -0.170000
     12 CAR         -3.9810     0.3510    -0.0320 ca         1 6S3      -0.074500
     13 CAM         -4.6450     1.4020     0.6060 ca         1 6S3      -0.119800
     14 CAH         -6.1200     1.4780     0.5630 cc         1 6S3       0.105700
     15 CAI         -6.8960     2.1590     1.4450 cd         1 6S3      -0.200200
     16 CAE         -8.2450     1.9830     1.0560 ca         1 6S3      -0.130100
     17 CAD         -9.4680     2.4360     1.5720 ca         1 6S3       0.082400
     18 ClAK        -9.5210     3.4390     2.9870 cl         1 6S3      -0.033400
     19 CAA        -10.6200     2.0670     0.9270 ca         1 6S3      -0.178300
     20 CAB        -10.5450     1.2600    -0.2110 ca         1 6S3       0.309800
     21 CAJ        -11.7900     0.8630    -0.9020 c          1 6S3       0.420600
     22 OBA        -12.8660     1.2400    -0.4800 o          1 6S3      -0.422100
     23 NAZ        -11.7320     0.0840    -2.0000 nz         1 6S3      -0.670400
     24 NAC         -9.3780     0.8410    -0.6830 nb         1 6S3      -0.725000
     25 CAF         -8.2390     1.1680    -0.0980 ca         1 6S3       0.463800
     26 NAG         -6.9220     0.8790    -0.3810 na         1 6S3      -0.160100
     27 CAL         -6.4520     0.0610    -1.5020 c3         1 6S3       0.032600
     28 H1          -0.3600     0.0300    -1.0210 h1         1 6S3       0.051700
     29 H2          -0.3600    -0.8970     0.4890 h1         1 6S3       0.051700
     30 H3           1.8900     0.8860    -0.5090 h1         1 6S3       0.049200
     31 H4           1.8900    -0.8860    -0.5080 h1         1 6S3       0.049200
     32 H6           3.8140    -0.9690     0.9100 h1         1 6S3       0.038033
     33 H7           3.8140    -0.1160     2.4600 h1         1 6S3       0.038033
     34 H8           3.9060     0.7970     0.9480 h1         1 6S3       0.038033
     35 H9           1.8920     1.1520     3.1320 h1         1 6S3       0.049200
     36 H10          1.8920     2.0790     1.6220 h1         1 6S3       0.049200
     37 H11         -0.3590     2.0700     2.6200 h1         1 6S3       0.051700
     38 H12         -0.3600     0.2970     2.6210 h1         1 6S3       0.051700
     39 H13         -1.9680     3.0660     1.8370 ha         1 6S3       0.153000
     40 H14         -4.4250     3.1990     1.7710 ha         1 6S3       0.136500
     41 H15         -2.0900    -0.5330    -0.4840 ha         1 6S3       0.153000
     42 H16         -4.5470    -0.4100    -0.5570 ha         1 6S3       0.136500
     43 H17         -6.5530     2.6530     2.3460 ha         1 6S3       0.186000
     44 H18        -11.5830     2.2920     1.3700 ha         1 6S3       0.180000
     45 H19        -12.6580    -0.1880    -2.2650 hn         1 6S3       0.478467
     46 H20        -11.1880    -0.7320    -1.8020 hn         1 6S3       0.478467
     47 H21         -6.1960    -0.9290    -1.1450 h1         1 6S3       0.064367
     48 H22         -5.5770     0.5230    -1.9440 h1         1 6S3       0.064367
     49 H23         -7.2350    -0.0150    -2.2470 h1         1 6S3       0.064367
     50 HAZ3       -11.3150     0.5970    -2.7520 hn         1 6S3       0.478467
@<TRIPOS>BOND
     1     4     3 1
     2     2     3 1
     3     2     1 1
     4     3     5 1
     5     5     6 1
     6     1     7 1
     7     7     6 1
     8     7     8 1
     9    11     8 ar
    10    11    12 ar
    11     8     9 ar
    12    12    13 ar
    13    27    26 1
    14     9    10 ar
    15    13    10 ar
    16    13    14 1
    17    26    14 1
    18    26    25 1
    19    14    15 2
    20    25    24 ar
    21    25    16 ar
    22    24    20 ar
    23    15    16 1
    24    23    21 1
    25    16    17 ar
    26    20    21 1
    27    20    19 ar
    28    21    22 2
    29    17    19 ar
    30    17    18 1
    31     1    28 1
    32     1    29 1
    33     2    30 1
    34     2    31 1
    35     4    32 1
    36     4    33 1
    37     4    34 1
    38     5    35 1
    39     5    36 1
    40     6    37 1
    41     6    38 1
    42     9    39 1
    43    10    40 1
    44    11    41 1
    45    12    42 1
    46    15    43 1
    47    19    44 1
    48    23    45 1
    49    23    46 1
    50    27    47 1
    51    27    48 1
    52    27    49 1
    53    50    23 1
@<TRIPOS>SUBSTRUCTURE
     1 6S3         1 TEMP              0 ****  ****    0 ROOT
