@<TRIPOS>MOLECULE
6S3
   50    53     1     0     0
SMALL
bcc


@<TRIPOS>ATOM
      1 CAT          0.0000     0.0000     0.0000 c3         1 6S3       0.134800
      2 CAU          1.5300     0.0000     0.0000 c3         1 6S3       0.153300
      3 NAV          2.0170     0.0000     1.3860 n3         1 6S3      -0.549600
      4 CAY          3.4840    -0.0770     1.4290 c3         1 6S3       0.190100
      5 CAW          1.5310     1.1820     2.1110 c3         1 6S3       0.153300
      6 CAX          0.0000     1.1830     2.1120 c3         1 6S3       0.134800
      7 NAS         -0.4870     1.1820     0.7260 nh         1 6S3      -0.354000
      8 CAP         -1.8790     1.2560     0.6850 ca         1 6S3       0.062600
      9 CAO         -2.5370     2.3060     1.3160 ca         1 6S3      -0.145500
     10 CAN         -3.9130     2.3810     1.2780 ca         1 6S3      -0.058500
     11 CAQ         -2.6050     0.2810     0.0100 ca         1 6S3      -0.145500
     12 CAR         -3.9810     0.3510    -0.0320 ca         1 6S3      -0.058500
     13 CAM         -4.6450     1.4020     0.6060 ca         1 6S3      -0.107800
     14 CAH         -6.1200     1.4780     0.5630 cc         1 6S3      -0.070300
     15 CAI         -6.8960     2.1590     1.4450 cd         1 6S3      -0.165200
     16 CAE         -8.2450     1.9830     1.0560 ca         1 6S3      -0.137100
     17 CAD         -9.4680     2.4360     1.5720 ca         1 6S3       0.017400
     18 ClAK        -9.5210     3.4390     2.9870 cl         1 6S3       0.062600
     19 CAA        -10.6200     2.0670     0.9270 ca         1 6S3      -0.153300
     20 CAB        -10.5450     1.2600    -0.2110 ca         1 6S3       0.234800
     21 CAJ        -11.7900     0.8630    -0.9020 c          1 6S3       0.254600
     22 OBA        -12.8660     1.2400    -0.4800 o          1 6S3      -0.436100
     23 NAZ        -11.7320     0.0840    -2.0000 nz         1 6S3       0.212600
     24 NAC         -9.3780     0.8410    -0.6830 nb         1 6S3      -0.574000
     25 CAF         -8.2390     1.1680    -0.0980 ca         1 6S3       0.230800
     26 NAG         -6.9220     0.8790    -0.3810 na         1 6S3       0.319900
     27 CAL         -6.4520     0.0610    -1.5020 c3         1 6S3      -0.027400
     28 H1          -0.3600     0.0300    -1.0210 h1         1 6S3       0.025200
     29 H2          -0.3600    -0.8970     0.4890 h1         1 6S3       0.025200
     30 H3           1.8900     0.8860    -0.5090 h1         1 6S3       0.020200
     31 H4           1.8900    -0.8860    -0.5080 h1         1 6S3       0.020200
     32 H6           3.8140    -0.9690     0.9100 h1         1 6S3       0.004700
     33 H7           3.8140    -0.1160     2.4600 h1         1 6S3       0.004700
     34 H8           3.9060     0.7970     0.9480 h1         1 6S3       0.004700
     35 H9           1.8920     1.1520     3.1320 h1         1 6S3       0.020200
     36 H10          1.8920     2.0790     1.6220 h1         1 6S3       0.020200
     37 H11         -0.3590     2.0700     2.6200 h1         1 6S3       0.025200
     38 H12         -0.3600     0.2970     2.6210 h1         1 6S3       0.025200
     39 H13         -1.9680     3.0660     1.8370 ha         1 6S3       0.130000
     40 H14         -4.4250     3.1990     1.7710 ha         1 6S3       0.111000
     41 H15         -2.0900    -0.5330    -0.4840 ha         1 6S3       0.130000
     42 H16         -4.5470    -0.4100    -0.5570 ha         1 6S3       0.111000
     43 H17         -6.5530     2.6530     2.3460 ha         1 6S3       0.157000
     44 H18        -11.5830     2.2920     1.3700 ha         1 6S3       0.148000
     45 H19        -12.6580    -0.1880    -2.2650 hn         1 6S3       0.244467
     46 H20        -11.1880    -0.7320    -1.8020 hn         1 6S3       0.244467
     47 H21         -6.1960    -0.9290    -1.1450 h1         1 6S3       0.035033
     48 H22         -5.5770     0.5230    -1.9440 h1         1 6S3       0.035033
     49 H23         -7.2350    -0.0150    -2.2470 h1         1 6S3       0.035033
     50 HAZ3       -11.3150     0.5970    -2.7520 hn         1 6S3       0.244467
@<TRIPOS>BOND
     1     1     2 1   
     2     1     7 1   
     3     1    28 1   
     4     1    29 1   
     5     2     3 1   
     6     2    30 1   
     7     2    31 1   
     8     3     4 1   
     9     3     5 1   
    10     4    32 1   
    11     4    33 1   
    12     4    34 1   
    13     5     6 1   
    14     5    35 1   
    15     5    36 1   
    16     6     7 1   
    17     6    37 1   
    18     6    38 1   
    19     7     8 1   
    20     8     9 ar  
    21     8    11 ar  
    22     9    10 ar  
    23     9    39 1   
    24    10    13 ar  
    25    10    40 1   
    26    11    12 ar  
    27    11    41 1   
    28    12    13 ar  
    29    12    42 1   
    30    13    14 1   
    31    14    15 2   
    32    14    26 1   
    33    15    16 1   
    34    15    43 1   
    35    16    17 ar  
    36    16    25 ar  
    37    17    18 1   
    38    17    19 ar  
    39    19    20 ar  
    40    19    44 1   
    41    20    21 1   
    42    20    24 ar  
    43    21    22 2   
    44    21    23 1   
    45    23    45 1   
    46    23    46 1   
    47    23    50 1   
    48    24    25 ar  
    49    25    26 1   
    50    26    27 1   
    51    27    47 1   
    52    27    48 1   
    53    27    49 1   
@<TRIPOS>SUBSTRUCTURE
     1 6S3         1 TEMP              0 ****  ****    0 ROOT
