@<TRIPOS>MOLECULE
molecule
   37    38     1     0     0
SMALL
bcc


@<TRIPOS>ATOM
      1 C4           0.0000     0.0000     0.0000 c          1 6S4       0.656100
      2 C5           1.5070     0.0000     0.0000 c3         1 6S4       0.091500
      3 C6           2.0220     0.0000     1.4390 c3         1 6S4      -0.018100
      4 N1           2.0020     1.2120    -0.6730 n7         1 6S4      -0.784200
      5 C7           3.5090     0.2420     1.4550 ca         1 6S4      -0.064300
      6 C8           4.2180    -0.0690     2.6050 ca         1 6S4      -0.128000
      7 C9           5.5810     0.1410     2.6630 ca         1 6S4      -0.126000
      8 C10          6.2420     0.6690     1.5680 ca         1 6S4      -0.128000
      9 C11          5.5370     0.9780     0.4230 ca         1 6S4      -0.125000
     10 C12          4.1680     0.7630     0.3620 ca         1 6S4      -0.075300
     11 C13          3.4450     1.1060    -0.9140 c3         1 6S4       0.204100
     12 O           -0.6050     1.0380    -0.1650 o          1 6S4      -0.589100
     13 N           -0.6730    -1.1530     0.1780 ns         1 6S4      -0.582900
     14 C1          -2.1390    -1.1540     0.1720 c3         1 6S4       0.122400
     15 C3          -2.6440    -0.6350    -1.1750 c3         1 6S4      -0.100767
     16 C2          -2.6490    -2.5800     0.3940 c3         1 6S4      -0.100767
     17 C           -2.6540    -0.2490     1.2940 c3         1 6S4      -0.100767
     18 H1           1.8760    -0.8780    -0.5170 h1         1 6S4       0.031700
     19 H2           1.5250     0.7850     1.9970 hc         1 6S4       0.063200
     20 H3           1.8110    -0.9600     1.8950 hc         1 6S4       0.063200
     21 H4           1.5260     1.3260    -1.5460 hn         1 6S4       0.368800
     22 H6           3.7000    -0.4820     3.4620 ha         1 6S4       0.129000
     23 H7           6.1310    -0.1030     3.5630 ha         1 6S4       0.130000
     24 H8           7.3120     0.8350     1.6080 ha         1 6S4       0.130000
     25 H9           6.0560     1.3910    -0.4340 ha         1 6S4       0.129000
     26 H10          3.8140     2.0530    -1.2890 h1         1 6S4       0.044200
     27 H11          3.6280     0.3290    -1.6460 h1         1 6S4       0.044200
     28 H12         -0.1730    -2.0130     0.2880 hn         1 6S4       0.311500
     29 H13         -2.5700     0.4460    -1.1960 hc         1 6S4       0.045256
     30 H14         -3.6780    -0.9280    -1.3110 hc         1 6S4       0.045256
     31 H15         -2.0420    -1.0540    -1.9720 hc         1 6S4       0.045256
     32 H16         -2.2670    -3.2250    -0.3880 hc         1 6S4       0.045256
     33 H17         -3.7320    -2.5840     0.3690 hc         1 6S4       0.045256
     34 H18         -2.3080    -2.9390     1.3580 hc         1 6S4       0.045256
     35 H19         -2.6150     0.7840     0.9700 hc         1 6S4       0.045256
     36 H20         -2.0330    -0.3750     2.1730 hc         1 6S4       0.045256
     37 H21         -3.6760    -0.5150     1.5320 hc         1 6S4       0.045256
@<TRIPOS>BOND
     1     9     8 ar
     2     9    10 ar
     3     8     7 ar
     4    11    10 1
     5    11     4 1
     6    10     5 ar
     7     7     6 ar
     8     2     4 1
     9     2     3 1
    10     2     1 1
    11     5     6 ar
    12     5     3 1
    13    17    14 1
    14    13     1 1
    15    13    14 1
    16     1    12 2
    17    16    14 1
    18    14    15 1
    19     2    18 1
    20     3    19 1
    21     3    20 1
    22     4    21 1
    23     6    22 1
    24     7    23 1
    25     8    24 1
    26     9    25 1
    27    11    26 1
    28    11    27 1
    29    13    28 1
    30    15    29 1
    31    15    30 1
    32    15    31 1
    33    16    32 1
    34    16    33 1
    35    16    34 1
    36    17    35 1
    37    17    36 1
    38    17    37 1
@<TRIPOS>SUBSTRUCTURE
     1 6S4         1 TEMP              0 ****  ****    0 ROOT
