@<TRIPOS>MOLECULE
molecule
   47    49     1     0     0
SMALL
bcc


@<TRIPOS>ATOM
      1 C17          0.0000     0.0000     0.0000 c3         1 6S7       0.149100
      2 N16          1.4690     0.0000     0.0000 n3         1 6S7      -0.721600
      3 C21          5.0010     5.0200    -6.5170 c3         1 6S7       0.169300
      4 C14          1.6320    -0.9710    -2.2420 c3         1 6S7       0.140400
      5 C12          1.5860     0.9850    -6.7110 ca         1 6S7       0.313200
      6 N11          1.0260    -0.0510    -6.1190 nb         1 6S7      -0.638000
      7 C10          1.2430    -0.3280    -4.8480 ca         1 6S7       0.290200
      8 C9           2.0790     0.4710    -4.0790 ca         1 6S7       0.044800
      9 C8           2.6880     1.5740    -4.6650 ca         1 6S7      -0.161000
     10 C3           3.3840     4.1310    -8.7470 c3         1 6S7      -0.070700
     11 C7           2.4380     1.8290    -6.0100 ca         1 6S7       0.028300
     12 C4           2.6140     3.0040    -8.0510 c3         1 6S7       0.179300
     13 C2           3.0740     5.4550    -8.0380 c3         1 6S7      -0.078400
     14 C18          1.9950     0.0000     1.3710 c3         1 6S7       0.149100
     15 C15          1.9960    -1.1380    -0.7660 c3         1 6S7       0.162800
     16 O13          2.2960     0.1790    -2.7700 os         1 6S7      -0.307900
     17 N5           3.0280     2.9250    -6.6440 nh         1 6S7      -0.547000
     18 C6           2.7290     4.1720    -5.9280 c3         1 6S7       0.179300
     19 C19          4.8870     3.8530    -8.6400 c3         1 6S7       0.169300
     20 N20          5.2680     3.7610    -7.2260 n7         1 6S7      -0.785200
     21 C1           3.5010     5.3280    -6.5710 c3         1 6S7      -0.070700
     22 H1          -0.3610    -1.0200    -0.0580 h1         1 6S7       0.032700
     23 H2          -0.3610     0.5600    -0.8540 h1         1 6S7       0.032700
     24 H3          -0.3610     0.4600     0.9120 h1         1 6S7       0.032700
     25 H6           5.3110     4.9230    -5.4830 h1         1 6S7       0.029450
     26 H7           0.5610    -0.8450    -2.3380 h1         1 6S7       0.037700
     27 H8           1.9430    -1.8510    -2.7920 h1         1 6S7       0.037700
     28 H9           1.3840     1.1770    -7.7580 h4         1 6S7       0.025100
     29 H10          0.7640    -1.1890    -4.3990 h4         1 6S7       0.020100
     30 H11          3.3460     2.2140    -4.0910 ha         1 6S7       0.158000
     31 H12          3.0910     4.1920    -9.7880 hc         1 6S7       0.056200
     32 H13          2.8310     2.0630    -8.5430 h1         1 6S7       0.042200
     33 H14          1.5520     3.2090    -8.1030 h1         1 6S7       0.042200
     34 H15          2.0110     5.6580    -8.0920 hc         1 6S7       0.044200
     35 H16          3.6240     6.2600    -8.5100 hc         1 6S7       0.044200
     36 H17          1.6360    -0.8770     1.8960 h1         1 6S7       0.032700
     37 H18          1.6600     0.8920     1.8870 h1         1 6S7       0.032700
     38 H19          3.0780    -0.0150     1.3430 h1         1 6S7       0.032700
     39 H20          3.0740    -1.1750    -0.6610 h1         1 6S7       0.047200
     40 H21          1.5650    -2.0570    -0.3890 h1         1 6S7       0.047200
     41 H22          3.0270     4.0720    -4.8920 h1         1 6S7       0.042200
     42 H23          1.6660     4.3740    -5.9860 h1         1 6S7       0.042200
     43 H24          5.1160     2.9180    -9.1360 h1         1 6S7       0.029450
     44 H25          5.4370     4.6600    -9.1090 h1         1 6S7       0.029450
     45 H26          6.2410     3.5390    -7.1560 hn         1 6S7       0.348800
     46 H28          3.2940     6.2510    -6.0430 hc         1 6S7       0.056200
     47 H5           5.5510     5.8240    -6.9910 h1         1 6S7       0.029450
@<TRIPOS>BOND
     1    13    10 1
     2    13    21 1
     3    10    19 1
     4    10    12 1
     5    19    20 1
     6    21     3 1
     7    21    18 1
     8     3    20 1
     9    12    17 1
    10    18    17 1
    11    17    11 1
    12    11     5 ar
    13    11     9 ar
    14     5     6 ar
    15     9     8 ar
    16     6     7 ar
    17     8     7 ar
    18     8    16 1
    19     4    16 1
    20     4    15 1
    21    14     2 1
    22    15     2 1
    23     2     1 1
    24     1    22 1
    25     1    23 1
    26     1    24 1
    27     3    47 1
    28     3    25 1
    29     4    26 1
    30     4    27 1
    31     5    28 1
    32     7    29 1
    33     9    30 1
    34    10    31 1
    35    12    32 1
    36    12    33 1
    37    13    34 1
    38    13    35 1
    39    14    36 1
    40    14    37 1
    41    14    38 1
    42    15    39 1
    43    15    40 1
    44    18    41 1
    45    18    42 1
    46    19    43 1
    47    19    44 1
    48    20    45 1
    49    21    46 1
@<TRIPOS>SUBSTRUCTURE
     1 6S7         1 TEMP              0 ****  ****    0 ROOT
