@<TRIPOS>MOLECULE
6S9
   45    48     1     0     0
SMALL
bcc


@<TRIPOS>ATOM
      1 O            0.0000     0.0000     0.0000 o          1 6S9      -0.633100
      2 C5           1.2170     0.0000     0.0000 c          1 6S9       0.549100
      3 N2           1.8910     0.0000     1.1660 ns         1 6S9      -0.222900
      4 C6           1.1580     0.0010     2.4360 c3         1 6S9       0.129300
      5 C7           2.1390     0.0020     3.5810 ca         1 6S9      -0.128300
      6 C12          2.5880     1.1990     4.1050 ca         1 6S9      -0.084000
      7 C11          3.4870     1.1990     5.1550 ca         1 6S9      -0.103000
      8 C10          3.9360     0.0020     5.6810 ca         1 6S9      -0.092000
      9 C9           3.4860    -1.1960     5.1560 ca         1 6S9      -0.103000
     10 C8           2.5830    -1.1950     4.1110 ca         1 6S9      -0.084000
     11 N1           1.8890    -0.0060    -1.1680 ns         1 6S9      -0.128400
     12 C3           1.1960    -0.1200    -2.3730 ca         1 6S9       0.424200
     13 N           -0.1330    -0.1130    -2.3620 nb         1 6S9      -0.580000
     14 C2          -0.8440    -0.2170    -3.4660 ca         1 6S9       0.515200
     15 C4           1.9050    -0.2320    -3.5560 ca         1 6S9      -0.319300
     16 C            1.2000    -0.3450    -4.7520 ca         1 6S9      -0.133200
     17 N4           1.5510    -0.4690    -6.0670 na         1 6S9       0.421900
     18 N3           0.3940    -0.5420    -6.8500 nc         1 6S9      -0.635100
     19 C13         -0.6690    -0.4700    -6.0860 cd         1 6S9       0.476500
     20 C1          -0.2110    -0.3400    -4.7000 ca         1 6S9      -0.405200
     21 C14         -2.0800    -0.5120    -6.5420 ca         1 6S9      -0.062900
     22 C18         -2.4580     0.0600    -7.7610 ca         1 6S9      -0.196300
     23 C17         -3.7810    -0.0020    -8.1450 ca         1 6S9       0.373600
     24 C19         -4.2030     0.6100    -9.4570 c3         1 6S9      -0.040400
     25 N5          -4.6820    -0.5890    -7.3820 nb         1 6S9      -0.576000
     26 C16         -4.3680    -1.1400    -6.2260 ca         1 6S9       0.407200
     27 C15         -3.0660    -1.1290    -5.7660 ca         1 6S9      -0.221300
     28 H4           2.8910     0.0130     1.1660 hn         1 6S9       0.168500
     29 H6           0.5360     0.8860     2.4930 h1         1 6S9       0.030200
     30 H5           0.5350    -0.8830     2.4940 h1         1 6S9       0.030200
     31 H11          2.2350     2.1370     3.6940 ha         1 6S9       0.108500
     32 H10          3.8390     2.1370     5.5670 ha         1 6S9       0.105000
     33 H9           4.6430     0.0020     6.5020 ha         1 6S9       0.104000
     34 H8           3.8360    -2.1340     5.5690 ha         1 6S9       0.105000
     35 H7           2.2300    -2.1340     3.7000 ha         1 6S9       0.108500
     36 H3           2.8860     0.0820    -1.1710 hn         1 6S9       0.162500
     37 H1          -1.9260    -0.2060    -3.4130 h4         1 6S9      -0.014900
     38 H2           2.9690    -0.4340    -3.5330 ha         1 6S9       0.117000
     39 H            2.4890    -0.5020    -6.4150 hn         1 6S9       0.153700
     40 H14         -1.7020     0.3740    -8.4700 ha         1 6S9       0.129000
     41 H16         -5.2790     0.5420    -9.5570 hc         1 6S9       0.014033
     42 H17         -3.9030     1.6500    -9.4830 hc         1 6S9       0.014033
     43 H15         -3.7300     0.0770   -10.2730 hc         1 6S9       0.014033
     44 H13         -5.1400    -1.6140    -5.6320 h4         1 6S9      -0.018900
     45 H12         -2.8140    -1.5830    -4.8160 ha         1 6S9       0.123000
@<TRIPOS>BOND
     1     1     2 2   
     2     2     3 1   
     3     2    11 1   
     4     3     4 1   
     5     3    28 1   
     6     4     5 1   
     7     4    29 1   
     8     4    30 1   
     9     5     6 ar  
    10     5    10 ar  
    11     6     7 ar  
    12     6    31 1   
    13     7     8 ar  
    14     7    32 1   
    15     8     9 ar  
    16     8    33 1   
    17     9    10 ar  
    18     9    34 1   
    19    10    35 1   
    20    11    12 1   
    21    11    36 1   
    22    12    13 ar  
    23    12    15 ar  
    24    13    14 ar  
    25    14    20 ar  
    26    14    37 1   
    27    15    16 ar  
    28    15    38 1   
    29    16    17 1   
    30    16    20 ar  
    31    17    18 1   
    32    17    39 1   
    33    18    19 2   
    34    19    20 1   
    35    19    21 1   
    36    21    22 ar  
    37    21    27 ar  
    38    22    23 ar  
    39    22    40 1   
    40    23    24 1   
    41    23    25 ar  
    42    24    41 1   
    43    24    42 1   
    44    24    43 1   
    45    25    26 ar  
    46    26    27 ar  
    47    26    44 1   
    48    27    45 1   
@<TRIPOS>SUBSTRUCTURE
     1 6S9         1 TEMP              0 ****  ****    0 ROOT
