@<TRIPOS>MOLECULE
6SC
   38    41     1     0     0
SMALL
bcc


@<TRIPOS>ATOM
      1 C01          0.0000     0.0000     0.0000 cc         1 6SC      -0.274900
      2 C02          1.3900     0.0000     0.0000 cd         1 6SC       0.263500
      3 N03          1.7890     0.0000     1.3130 na         1 6SC       0.487200
      4 N04          0.6350     0.0000     2.1050 nd         1 6SC      -0.760100
      5 C05         -0.4190     0.0070     1.3230 cc         1 6SC       0.521500
      6 N06          2.2940    -0.0010    -0.9880 nd         1 6SC      -0.592000
      7 C07          3.5900    -0.0030    -0.7250 cc         1 6SC       0.523800
      8 C08          4.0390    -0.0030     0.6080 cc         1 6SC      -0.395300
      9 C09          3.1240    -0.0020     1.6210 cd         1 6SC       0.007300
     10 N10          3.5380    -0.0010     2.9380 nu         1 6SC      -0.380600
     11 C11          4.5710    -0.0040    -1.8360 ca         1 6SC      -0.166500
     12 C12          4.9680    -0.0030     3.2560 c3         1 6SC       0.224100
     13 C13          5.1500    -0.0020     4.7520 ca         1 6SC      -0.099300
     14 C14          5.2310     1.1890     5.4560 ca         1 6SC      -0.201800
     15 C15          5.3910     1.1510     6.8280 ca         1 6SC       0.408200
     16 N16          5.4690    -0.0010     7.4660 nb         1 6SC      -0.569000
     17 C17          5.3960    -1.1530     6.8290 ca         1 6SC       0.408200
     18 C18          5.2350    -1.1930     5.4560 ca         1 6SC      -0.201800
     19 C19          4.1300    -0.0040    -3.1580 ca         1 6SC      -0.070500
     20 C20          5.0480    -0.0040    -4.1890 ca         1 6SC      -0.110000
     21 C21          6.4030    -0.0040    -3.9120 ca         1 6SC      -0.085000
     22 C22          6.8460    -0.0040    -2.6010 ca         1 6SC      -0.110000
     23 C23          5.9380     0.0010    -1.5630 ca         1 6SC      -0.070500
     24 Br24        -1.1160     0.0000    -1.5260 br         1 6SC      -0.048700
     25 H05         -1.4500     0.0160     1.6570 h4         1 6SC       0.018800
     26 H08          5.1000    -0.0040     0.8280 ha         1 6SC       0.151000
     27 HN10         2.8610    -0.0210     3.6750 hn         1 6SC       0.319800
     28 H121         5.4330     0.8810     2.8350 h1         1 6SC       0.026200
     29 H122         5.4300    -0.8890     2.8370 h1         1 6SC       0.026200
     30 H14          5.1680     2.1390     4.9380 ha         1 6SC       0.119000
     31 H15          5.4560     2.0770     7.3860 h4         1 6SC      -0.015900
     32 H17          5.4630    -2.0790     7.3870 h4         1 6SC      -0.015900
     33 H18          5.1750    -2.1420     4.9380 ha         1 6SC       0.119000
     34 H19          3.0690    -0.0030    -3.3770 ha         1 6SC       0.117000
     35 H20          4.7070    -0.0040    -5.2170 ha         1 6SC       0.104500
     36 H21          7.1200    -0.0070    -4.7240 ha         1 6SC       0.102000
     37 H22          7.9090    -0.0030    -2.3900 ha         1 6SC       0.104500
     38 H23          6.2870     0.0010    -0.5370 ha         1 6SC       0.117000
@<TRIPOS>BOND
     1     1     2 2   
     2     1     5 1   
     3     1    24 1   
     4     2     3 1   
     5     2     6 1   
     6     3     4 1   
     7     3     9 1   
     8     4     5 2   
     9     5    25 1   
    10     6     7 2   
    11     7     8 1   
    12     7    11 1   
    13     8     9 2   
    14     8    26 1   
    15     9    10 1   
    16    10    12 1   
    17    10    27 1   
    18    11    19 ar  
    19    11    23 ar  
    20    12    13 1   
    21    12    28 1   
    22    12    29 1   
    23    13    14 ar  
    24    13    18 ar  
    25    14    15 ar  
    26    14    30 1   
    27    15    16 ar  
    28    15    31 1   
    29    16    17 ar  
    30    17    18 ar  
    31    17    32 1   
    32    18    33 1   
    33    19    20 ar  
    34    19    34 1   
    35    20    21 ar  
    36    20    35 1   
    37    21    22 ar  
    38    21    36 1   
    39    22    23 ar  
    40    22    37 1   
    41    23    38 1   
@<TRIPOS>SUBSTRUCTURE
     1 6SC         1 TEMP              0 ****  ****    0 ROOT
