@<TRIPOS>MOLECULE
molecule
   38    41     1     0     0
SMALL
bcc


@<TRIPOS>ATOM
      1 C01          0.0000     0.0000     0.0000 cc         1 6SC      -0.297900
      2 C02          1.3900     0.0000     0.0000 cd         1 6SC       0.476500
      3 N03          1.7890     0.0000     1.3130 na         1 6SC       0.001200
      4 N04          0.6350     0.0000     2.1050 nc         1 6SC      -0.592100
      5 C05         -0.4190     0.0070     1.3230 cd         1 6SC       0.456500
      6 N06          2.2940    -0.0010    -0.9880 nd         1 6SC      -0.721000
      7 C07          3.5900    -0.0030    -0.7250 cc         1 6SC       0.581800
      8 C08          4.0390    -0.0030     0.6080 cd         1 6SC      -0.420300
      9 C09          3.1240    -0.0020     1.6210 cc         1 6SC       0.335300
     10 N10          3.5380    -0.0010     2.9380 nu         1 6SC      -0.798600
     11 C11          4.5710    -0.0040    -1.8360 ca         1 6SC      -0.162500
     12 C12          4.9680    -0.0030     3.2560 c3         1 6SC       0.286100
     13 C13          5.1500    -0.0020     4.7520 ca         1 6SC      -0.088300
     14 C14          5.2310     1.1890     5.4560 ca         1 6SC      -0.235800
     15 C15          5.3910     1.1510     6.8280 ca         1 6SC       0.421200
     16 N16          5.4690    -0.0010     7.4660 nb         1 6SC      -0.678000
     17 C17          5.3960    -1.1530     6.8290 ca         1 6SC       0.421200
     18 C18          5.2350    -1.1930     5.4560 ca         1 6SC      -0.235800
     19 C19          4.1300    -0.0040    -3.1580 ca         1 6SC      -0.089000
     20 C20          5.0480    -0.0040    -4.1890 ca         1 6SC      -0.139000
     21 C21          6.4030    -0.0040    -3.9120 ca         1 6SC      -0.108000
     22 C22          6.8460    -0.0040    -2.6010 ca         1 6SC      -0.139000
     23 C23          5.9380     0.0010    -1.5630 ca         1 6SC      -0.089000
     24 Br24        -1.1160     0.0000    -1.5260 br         1 6SC      -0.039700
     25 H05         -1.4500     0.0160     1.6570 h4         1 6SC       0.069800
     26 H08          5.1000    -0.0040     0.8280 ha         1 6SC       0.160000
     27 HN10         2.8610    -0.0210     3.6750 hn         1 6SC       0.469800
     28 H121         5.4330     0.8810     2.8350 h1         1 6SC       0.056200
     29 H122         5.4300    -0.8890     2.8370 h1         1 6SC       0.056200
     30 H14          5.1680     2.1390     4.9380 ha         1 6SC       0.145000
     31 H15          5.4560     2.0770     7.3860 h4         1 6SC       0.029600
     32 H17          5.4630    -2.0790     7.3870 h4         1 6SC       0.029600
     33 H18          5.1750    -2.1420     4.9380 ha         1 6SC       0.145000
     34 H19          3.0690    -0.0030    -3.3770 ha         1 6SC       0.145000
     35 H20          4.7070    -0.0040    -5.2170 ha         1 6SC       0.134000
     36 H21          7.1200    -0.0070    -4.7240 ha         1 6SC       0.132000
     37 H22          7.9090    -0.0030    -2.3900 ha         1 6SC       0.134000
     38 H23          6.2870     0.0010    -0.5370 ha         1 6SC       0.145000
@<TRIPOS>BOND
     1    15    16 ar
     2    15    14 ar
     3    16    17 ar
     4    14    13 ar
     5    17    18 ar
     6    13    18 ar
     7    13    12 1
     8    10    12 1
     9    10     9 1
    10     4     5 2
    11     4     3 1
    12     5     1 1
    13     3     9 1
    14     3     2 1
    15     9     8 2
    16     1     2 2
    17     1    24 1
    18     8     7 1
    19     2     6 1
    20     7     6 2
    21     7    11 1
    22    11    19 ar
    23    11    23 ar
    24    19    20 ar
    25    23    22 ar
    26    20    21 ar
    27    22    21 ar
    28     5    25 1
    29     8    26 1
    30    10    27 1
    31    12    28 1
    32    12    29 1
    33    14    30 1
    34    15    31 1
    35    17    32 1
    36    18    33 1
    37    19    34 1
    38    20    35 1
    39    21    36 1
    40    22    37 1
    41    23    38 1
@<TRIPOS>SUBSTRUCTURE
     1 6SC         1 TEMP              0 ****  ****    0 ROOT
