@<TRIPOS>MOLECULE
molecule
   25    26     1     0     0
SMALL
bcc


@<TRIPOS>ATOM
      1 C1           0.0000     0.0000     0.0000 c3         1 6SD       0.128700
      2 C2           2.0460     0.0000     1.2100 ca         1 6SD       0.145100
      3 C3           3.4330    -0.0010     1.2800 ca         1 6SD      -0.195500
      4 C7           1.2900     0.0050     2.3740 ca         1 6SD      -0.195500
      5 C8           3.9790     0.0150     5.0000 cc         1 6SD       0.404800
      6 C9           3.3390     0.0200     6.2530 cc         1 6SD      -0.344300
      7 C10          4.3040     0.0180     7.2120 cd         1 6SD       0.163300
      8 N3           4.0940     0.0210     8.5880 nv         1 6SD      -0.961200
      9 N1           5.5100     0.0110     6.5850 na         1 6SD      -0.060600
     10 N2           5.2800     0.0090     5.2030 nd         1 6SD      -0.510800
     11 C5           3.3060     0.0100     3.6770 ca         1 6SD      -0.153500
     12 C4           4.0620     0.0050     2.5080 ca         1 6SD      -0.068500
     13 C6           1.9140     0.0100     3.6040 ca         1 6SD      -0.068500
     14 O            1.4290     0.0000     0.0000 os         1 6SD      -0.328900
     15 H1          -0.3610    -0.0020    -1.0210 h1         1 6SD       0.041700
     16 H2          -0.3610    -0.8830     0.5120 h1         1 6SD       0.041700
     17 H3          -0.3610     0.8860     0.5090 h1         1 6SD       0.041700
     18 H4           4.0210    -0.0040     0.3700 ha         1 6SD       0.140000
     19 H5           0.2080     0.0050     2.3160 ha         1 6SD       0.140000
     20 H6           2.2700     0.0260     6.4240 ha         1 6SD       0.157000
     21 H7           4.0150    -0.8450     9.0840 hn         1 6SD       0.436800
     22 H8           4.0230     0.8880     9.0820 hn         1 6SD       0.436800
     23 H9           6.4050     0.0080     7.0320 hn         1 6SD       0.323700
     24 H10          5.1440     0.0050     2.5630 ha         1 6SD       0.143500
     25 H11          1.3220     0.0140     4.5120 ha         1 6SD       0.143500
@<TRIPOS>BOND
     1     1    14 1   
     2     4    13 ar  
     3     4     2 ar  
     4    14     2 1   
     5    13    11 ar  
     6     2     3 ar  
     7    11    12 ar  
     8    11     5 1   
     9     3    12 ar  
    10    10     5 2   
    11    10     9 1   
    12     5     6 1   
    13     9     7 1   
    14     6     7 2   
    15     7     8 1   
    16     1    15 1   
    17     1    16 1   
    18     1    17 1   
    19     3    18 1   
    20     4    19 1   
    21     6    20 1   
    22     8    21 1   
    23     8    22 1   
    24     9    23 1   
    25    12    24 1   
    26    13    25 1   
@<TRIPOS>SUBSTRUCTURE
     1 6SD         1 TEMP              0 ****  ****    0 ROOT
