@<TRIPOS>MOLECULE
6SD
   25    26     1     0     0
SMALL
bcc


@<TRIPOS>ATOM
      1 C1           0.0000     0.0000     0.0000 c3         1 6SD       0.243700
      2 C2           2.0460     0.0000     1.2100 ca         1 6SD       0.154100
      3 C3           3.4330    -0.0010     1.2800 ca         1 6SD      -0.183000
      4 C7           1.2900     0.0050     2.3740 ca         1 6SD      -0.183000
      5 C8           3.9790     0.0150     5.0000 cc         1 6SD       0.438800
      6 C9           3.3390     0.0200     6.2530 cc         1 6SD      -0.328300
      7 C10          4.3040     0.0180     7.2120 cd         1 6SD      -0.141700
      8 N3           4.0940     0.0210     8.5880 nv         1 6SD      -0.506200
      9 N1           5.5100     0.0110     6.5850 na         1 6SD       0.429400
     10 N2           5.2800     0.0090     5.2030 nd         1 6SD      -0.658800
     11 C5           3.3060     0.0100     3.6770 ca         1 6SD      -0.160500
     12 C4           4.0620     0.0050     2.5080 ca         1 6SD      -0.040000
     13 C6           1.9140     0.0100     3.6040 ca         1 6SD      -0.040000
     14 O            1.4290     0.0000     0.0000 os         1 6SD      -0.307900
     15 H1          -0.3610    -0.0020    -1.0210 h1         1 6SD      -0.003300
     16 H2          -0.3610    -0.8830     0.5120 h1         1 6SD      -0.003300
     17 H3          -0.3610     0.8860     0.5090 h1         1 6SD      -0.003300
     18 H4           4.0210    -0.0040     0.3700 ha         1 6SD       0.118000
     19 H5           0.2080     0.0050     2.3160 ha         1 6SD       0.118000
     20 H6           2.2700     0.0260     6.4240 ha         1 6SD       0.139000
     21 H7           4.0150    -0.8450     9.0840 hn         1 6SD       0.272800
     22 H8           4.0230     0.8880     9.0820 hn         1 6SD       0.272800
     23 H9           6.4050     0.0080     7.0320 hn         1 6SD       0.144700
     24 H10          5.1440     0.0050     2.5630 ha         1 6SD       0.114000
     25 H11          1.3220     0.0140     4.5120 ha         1 6SD       0.114000
@<TRIPOS>BOND
     1     1    14 1   
     2     1    15 1   
     3     1    16 1   
     4     1    17 1   
     5     2     3 ar  
     6     2     4 ar  
     7     2    14 1   
     8     3    12 ar  
     9     3    18 1   
    10     4    13 ar  
    11     4    19 1   
    12     5     6 1   
    13     5    10 2   
    14     5    11 1   
    15     6     7 2   
    16     6    20 1   
    17     7     8 1   
    18     7     9 1   
    19     8    21 1   
    20     8    22 1   
    21     9    10 1   
    22     9    23 1   
    23    11    12 ar  
    24    11    13 ar  
    25    12    24 1   
    26    13    25 1   
@<TRIPOS>SUBSTRUCTURE
     1 6SD         1 TEMP              0 ****  ****    0 ROOT
