@<TRIPOS>MOLECULE
6SE
    5     4     1     0     0
SMALL
bcc


@<TRIPOS>ATOM
      1 SE1         0.5220    0.7070   -0.2610 sh        1 6SE     -0.222800
      2 SE2         2.3090    0.0200    0.0850 ss        1 6SE      0.042000
      3 SE3         2.9480   -0.7110    1.7720 sh        1 6SE     -0.222800
      4 HSE1       -0.2020   -0.3570   -0.5890 hs        1 6SE      0.201800
      5 HSE3        3.3490    0.3410    2.4770 hs        1 6SE      0.201800
@<TRIPOS>BOND
     1    1    2 1   
     2    1    4 1   
     3    2    3 1   
     4    3    5 1   
@<TRIPOS>SUBSTRUCTURE
     1 6SE         1 TEMP              0 ****  ****    0 ROOT
