@<TRIPOS>MOLECULE
molecule
    5     4     1     0     0
SMALL
bcc


@<TRIPOS>ATOM
      1 SE1          0.0000     0.0000     0.0000 sh         1 6SE      -0.266800
      2 SE2          2.3600     0.0000     0.0000 ss         1 6SE      -0.040000
      3 SE3          2.8100     0.0000     2.3160 sh         1 6SE      -0.266800
      4 HSE1        -0.4810     0.0000    -1.3610 hs         1 6SE       0.286800
      5 HSE3         4.2380     0.0000     2.5290 hs         1 6SE       0.286800
@<TRIPOS>BOND
     1     2     1 1   
     2     2     3 1   
     3     1     4 1   
     4     3     5 1   
@<TRIPOS>SUBSTRUCTURE
     1 6SE         1 TEMP              0 ****  ****    0 ROOT
