@<TRIPOS>MOLECULE
6SF
   22    22     1     0     0
SMALL
bcc


@<TRIPOS>ATOM
      1 C1           0.0000     0.0000     0.0000 ca         1 6SF      -0.032000
      2 C2           1.3830     0.0000     0.0000 ca         1 6SF      -0.067600
      3 C3           2.0760     0.0000     1.1990 ca         1 6SF      -0.008600
      4 C7          -2.6930    -0.0020     4.9130 c3         1 6SF      -0.047200
      5 Cl1          2.2500     0.0010    -1.5030 cl         1 6SF       0.044600
      6 Cl           3.8120     0.0010     1.1970 cl         1 6SF       0.045600
      7 C4           1.3870    -0.0000     2.3970 ca         1 6SF      -0.114000
      8 C5           0.0000    -0.0010     2.3980 ca         1 6SF       0.121100
      9 C           -0.6920    -0.0010     1.1960 ca         1 6SF      -0.193000
     10 O           -0.6800    -0.0010     3.5750 os         1 6SF      -0.340900
     11 C6          -2.1070    -0.0010     3.5000 c3         1 6SF       0.191400
     12 N           -2.3400     1.2530     5.5890 nz         1 6SF       0.086400
     13 H1          -0.5410    -0.0000    -0.9380 ha         1 6SF       0.127000
     14 H2          -2.2900    -0.8390     5.4700 hx         1 6SF       0.091700
     15 H3          -3.7710    -0.0910     4.8570 hx         1 6SF       0.091700
     16 H4           1.9290    -0.0000     3.3350 ha         1 6SF       0.129000
     17 H5          -1.7750    -0.0020     1.1950 ha         1 6SF       0.114000
     18 H6          -2.4400    -0.8860     2.9700 h1         1 6SF       0.040700
     19 H7          -2.4410     0.8830     2.9710 h1         1 6SF       0.040700
     20 H8          -1.3980     1.1970     5.9240 hn         1 6SF       0.227133
     21 H9          -2.4200     2.0140     4.9440 hn         1 6SF       0.227133
     22 HN3         -2.9600     1.4020     6.3600 hn         1 6SF       0.227133
@<TRIPOS>BOND
     1     1     2 ar  
     2     1     9 ar  
     3     1    13 1   
     4     2     3 ar  
     5     2     5 1   
     6     3     6 1   
     7     3     7 ar  
     8     4    11 1   
     9     4    12 1   
    10     4    14 1   
    11     4    15 1   
    12     7     8 ar  
    13     7    16 1   
    14     8     9 ar  
    15     8    10 1   
    16     9    17 1   
    17    10    11 1   
    18    11    18 1   
    19    11    19 1   
    20    12    20 1   
    21    12    21 1   
    22    12    22 1   
@<TRIPOS>SUBSTRUCTURE
     1 6SF         1 TEMP              0 ****  ****    0 ROOT
