@<TRIPOS>MOLECULE
6SH
   72    75     1     0     0
SMALL
bcc


@<TRIPOS>ATOM
      1 C4           0.0000     0.0000     0.0000 c3         1 6SH      -0.113400
      2 C5           1.5310     0.0000     0.0000 c3         1 6SH       0.004600
      3 C6          -2.0400    -1.2490     0.7210 c3         1 6SH      -0.030400
      4 N1          -4.5690    -1.4970     2.2170 ns         1 6SH      -0.190900
      5 C7          -2.5510    -2.5560     1.3300 c3         1 6SH      -0.052400
      6 C8          -4.0800    -2.5550     1.3300 c3         1 6SH      -0.040300
      7 N2          -8.4230     2.5930     6.6380 ns         1 6SH      -0.211900
      8 C9          -4.5830    -3.8900     1.8160 c          1 6SH       0.287100
      9 C11         -6.2840     0.1050     2.9170 ca         1 6SH      -0.181600
     10 C12         -7.5480     0.6600     2.7160 ca         1 6SH      -0.050000
     11 N3         -10.5590     1.2600    10.0530 nc         1 6SH      -0.664800
     12 C13         -8.0020     1.6560     3.5550 ca         1 6SH      -0.089500
     13 C14         -7.2060     2.1050     4.5950 ca         1 6SH      -0.064300
     14 C15         -7.7100     3.1930     5.5080 c3         1 6SH       0.061300
     15 N4         -10.8240     2.5240    10.5900 na         1 6SH       0.606300
     16 O2          -6.4870    -1.3600     1.1080 o          1 6SH      -0.643100
     17 O           -5.2810    -3.9520     2.8070 o          1 6SH      -0.387100
     18 N           -4.2570    -5.0160     1.1500 nz         1 6SH       0.197600
     19 C3          -0.5100    -1.2490     0.7210 c3         1 6SH       0.034300
     20 C2          -0.0010    -1.2490     2.1640 c3         1 6SH      -0.113400
     21 C1           1.5290    -1.2480     2.1640 c3         1 6SH       0.004600
     22 C            2.0400     0.0000     1.4430 c3         1 6SH      -0.026400
     23 C27         -5.4880     0.5580     3.9700 ca         1 6SH      -0.050000
     24 C26         -5.9520     1.5590     4.7990 ca         1 6SH      -0.089500
     25 C16         -8.9630     3.3800     7.5890 c          1 6SH       0.682700
     26 O1          -8.8580     4.5900     7.5100 o          1 6SH      -0.662100
     27 C17         -9.6770     2.7770     8.7210 cd         1 6SH      -0.462900
     28 C25        -10.2840     3.4570     9.7750 cc         1 6SH      -0.046700
     29 N5         -10.3260     4.8250     9.9510 nv         1 6SH      -0.434200
     30 C18         -9.8820     1.3950     8.9490 cd         1 6SH       0.440200
     31 C19        -11.5300     2.7800    11.7720 ca         1 6SH      -0.159200
     32 C24        -12.5970     1.9700    12.1360 ca         1 6SH      -0.096500
     33 C23        -13.2910     2.2250    13.3020 ca         1 6SH      -0.085500
     34 C22        -12.9240     3.2870    14.1080 ca         1 6SH      -0.087000
     35 C21        -11.8640     4.0970    13.7490 ca         1 6SH      -0.085500
     36 C20        -11.1620     3.8440    12.5870 ca         1 6SH      -0.096500
     37 H1          -0.3600     0.8840     0.5130 hc         1 6SH       0.035700
     38 H2          -0.3600    -0.0030    -1.0220 hc         1 6SH       0.035700
     39 H3           1.8910     0.8860    -0.5080 hc         1 6SH       0.014200
     40 H4           1.8910    -0.8860    -0.5090 hc         1 6SH       0.014200
     41 H5          -2.4020    -0.4120     1.3070 hc         1 6SH       0.037700
     42 H6          -2.4010    -1.1590    -0.2960 hc         1 6SH       0.037700
     43 H7          -4.0000    -1.1790     2.9770 hn         1 6SH       0.209500
     44 H8          -2.1900    -2.6450     2.3480 hc         1 6SH       0.020700
     45 H9          -2.1900    -3.3920     0.7440 hc         1 6SH       0.020700
     46 H10         -4.4410    -2.3780     0.3240 h1         1 6SH       0.093700
     47 H11         -7.9910     1.6900     6.6370 hn         1 6SH       0.177500
     48 H12         -8.1720     0.3090     1.9020 ha         1 6SH       0.111500
     49 H13         -8.9840     2.0880     3.4010 ha         1 6SH       0.122500
     50 H14         -6.8710     3.7720     5.8760 h1         1 6SH       0.034700
     51 H15         -8.3830     3.8420     4.9600 h1         1 6SH       0.034700
     52 H16         -4.9980    -5.6830     1.2400 hn         1 6SH       0.247133
     53 H17         -3.4160    -5.3990     1.5340 hn         1 6SH       0.247133
     54 H18         -0.1440    -2.1320     0.2110 hc         1 6SH       0.004700
     55 H19          0.1420    -2.1350     1.5580 hc         1 6SH       0.035700
     56 H20         -0.5760    -1.6210     3.0030 hc         1 6SH       0.035700
     57 H21          1.8900    -2.1320     1.6530 hc         1 6SH       0.014200
     58 H22          1.8890    -1.2450     3.1870 hc         1 6SH       0.014200
     59 H23          1.6760     0.8840     1.9520 hc         1 6SH       0.025200
     60 H24          3.1230    -0.0030     1.4420 hc         1 6SH       0.025200
     61 H25         -4.5050     0.1320     4.1310 ha         1 6SH       0.111500
     62 H26         -5.3350     1.9140     5.6160 ha         1 6SH       0.122500
     63 H27        -11.1930     5.2750    10.1690 hn         1 6SH       0.286300
     64 H28         -9.4830     5.3620     9.8970 hn         1 6SH       0.286300
     65 H29         -9.5350     0.5890     8.3140 h4         1 6SH      -0.004900
     66 H30        -12.8840     1.1370    11.5050 ha         1 6SH       0.121500
     67 H31        -14.1230     1.5920    13.5860 ha         1 6SH       0.110500
     68 H32        -13.4720     3.4870    15.0210 ha         1 6SH       0.109000
     69 H33        -11.5780     4.9280    14.3840 ha         1 6SH       0.110500
     70 H34        -10.3310     4.4790    12.3060 ha         1 6SH       0.121500
     71 HN3         -4.1280    -4.8050     0.1800 hn         1 6SH       0.247133
     72 C10         -5.7910    -0.9630     2.0210 c          1 6SH       0.623700
@<TRIPOS>BOND
     1     1     2 1   
     2     1    19 1   
     3     1    37 1   
     4     1    38 1   
     5     2    22 1   
     6     2    39 1   
     7     2    40 1   
     8     3     5 1   
     9     3    19 1   
    10     3    41 1   
    11     3    42 1   
    12     4     6 1   
    13     4    43 1   
    14     4    72 1   
    15     5     6 1   
    16     5    44 1   
    17     5    45 1   
    18     6     8 1   
    19     6    46 1   
    20     7    14 1   
    21     7    25 1   
    22     7    47 1   
    23     8    17 2   
    24     8    18 1   
    25     9    10 ar  
    26     9    23 ar  
    27     9    72 1   
    28    10    12 ar  
    29    10    48 1   
    30    11    15 1   
    31    11    30 2   
    32    12    13 ar  
    33    12    49 1   
    34    13    14 1   
    35    13    24 ar  
    36    14    50 1   
    37    14    51 1   
    38    15    28 1   
    39    15    31 1   
    40    16    72 2   
    41    18    52 1   
    42    18    53 1   
    43    18    71 1   
    44    19    20 1   
    45    19    54 1   
    46    20    21 1   
    47    20    55 1   
    48    20    56 1   
    49    21    22 1   
    50    21    57 1   
    51    21    58 1   
    52    22    59 1   
    53    22    60 1   
    54    23    24 ar  
    55    23    61 1   
    56    24    62 1   
    57    25    26 2   
    58    25    27 1   
    59    27    28 2   
    60    27    30 1   
    61    28    29 1   
    62    29    63 1   
    63    29    64 1   
    64    30    65 1   
    65    31    32 ar  
    66    31    36 ar  
    67    32    33 ar  
    68    32    66 1   
    69    33    34 ar  
    70    33    67 1   
    71    34    35 ar  
    72    34    68 1   
    73    35    36 ar  
    74    35    69 1   
    75    36    70 1   
@<TRIPOS>SUBSTRUCTURE
     1 6SH         1 TEMP              0 ****  ****    0 ROOT
