@<TRIPOS>MOLECULE
molecule
   72    75     1     0     0
SMALL
bcc


@<TRIPOS>ATOM
      1 C4           0.0000     0.0000     0.0000 c3         1 6SH      -0.145900
      2 C5           1.5310     0.0000     0.0000 c3         1 6SH      -0.061900
      3 C6          -2.0400    -1.2490     0.7210 c3         1 6SH      -0.075400
      4 N1          -4.5690    -1.4970     2.2170 ns         1 6SH      -0.568900
      5 C7          -2.5510    -2.5560     1.3300 c3         1 6SH      -0.110400
      6 C8          -4.0800    -2.5550     1.3300 c3         1 6SH       0.051700
      7 N2          -8.4230     2.5930     6.6380 ns         1 6SH      -0.572900
      8 C9          -4.5830    -3.8900     1.8160 c          1 6SH       0.453100
      9 C11         -6.2840     0.1050     2.9170 ca         1 6SH      -0.162600
     10 C12         -7.5480     0.6600     2.7160 ca         1 6SH      -0.080500
     11 N3         -10.5590     1.2600    10.0530 nc         1 6SH      -0.508800
     12 C13         -8.0020     1.6560     3.5550 ca         1 6SH      -0.118000
     13 C14         -7.2060     2.1050     4.5950 ca         1 6SH      -0.066300
     14 C15         -7.7100     3.1930     5.5080 c3         1 6SH       0.105300
     15 N4         -10.8240     2.5240    10.5900 na         1 6SH       0.132300
     16 O2          -6.4870    -1.3600     1.1080 o          1 6SH      -0.602100
     17 O           -5.2810    -3.9520     2.8070 o          1 6SH      -0.383100
     18 N           -4.2570    -5.0160     1.1500 nz         1 6SH      -0.683400
     19 C3          -0.5100    -1.2490     0.7210 c3         1 6SH      -0.009700
     20 C2          -0.0010    -1.2490     2.1640 c3         1 6SH      -0.145900
     21 C1           1.5290    -1.2480     2.1640 c3         1 6SH      -0.061900
     22 C            2.0400     0.0000     1.4430 c3         1 6SH      -0.077400
     23 C27         -5.4880     0.5580     3.9700 ca         1 6SH      -0.080500
     24 C26         -5.9520     1.5590     4.7990 ca         1 6SH      -0.118000
     25 C16         -8.9630     3.3800     7.5890 c          1 6SH       0.740700
     26 O1          -8.8580     4.5900     7.5100 o          1 6SH      -0.618100
     27 C17         -9.6770     2.7770     8.7210 cd         1 6SH      -0.429900
     28 C25        -10.2840     3.4570     9.7750 cc         1 6SH       0.267300
     29 N5         -10.3260     4.8250     9.9510 nv         1 6SH      -0.913200
     30 C18         -9.8820     1.3950     8.9490 cd         1 6SH       0.376200
     31 C19        -11.5300     2.7800    11.7720 ca         1 6SH       0.016800
     32 C24        -12.5970     1.9700    12.1360 ca         1 6SH      -0.131000
     33 C23        -13.2910     2.2250    13.3020 ca         1 6SH      -0.114500
     34 C22        -12.9240     3.2870    14.1080 ca         1 6SH      -0.126000
     35 C21        -11.8640     4.0970    13.7490 ca         1 6SH      -0.114500
     36 C20        -11.1620     3.8440    12.5870 ca         1 6SH      -0.131000
     37 H1          -0.3600     0.8840     0.5130 hc         1 6SH       0.059700
     38 H2          -0.3600    -0.0030    -1.0220 hc         1 6SH       0.059700
     39 H3           1.8910     0.8860    -0.5080 hc         1 6SH       0.044200
     40 H4           1.8910    -0.8860    -0.5090 hc         1 6SH       0.044200
     41 H5          -2.4020    -0.4120     1.3070 hc         1 6SH       0.067700
     42 H6          -2.4010    -1.1590    -0.2960 hc         1 6SH       0.067700
     43 H7          -4.0000    -1.1790     2.9770 hn         1 6SH       0.345500
     44 H8          -2.1900    -2.6450     2.3480 hc         1 6SH       0.050200
     45 H9          -2.1900    -3.3920     0.7440 hc         1 6SH       0.050200
     46 H10         -4.4410    -2.3780     0.3240 h1         1 6SH       0.123700
     47 H11         -7.9910     1.6900     6.6370 hn         1 6SH       0.310500
     48 H12         -8.1720     0.3090     1.9020 ha         1 6SH       0.140500
     49 H13         -8.9840     2.0880     3.4010 ha         1 6SH       0.153500
     50 H14         -6.8710     3.7720     5.8760 h1         1 6SH       0.065700
     51 H15         -8.3830     3.8420     4.9600 h1         1 6SH       0.065700
     52 H16         -4.9980    -5.6830     1.2400 hn         1 6SH       0.476467
     53 H17         -3.4160    -5.3990     1.5340 hn         1 6SH       0.476467
     54 H18         -0.1440    -2.1320     0.2110 hc         1 6SH       0.021700
     55 H19          0.1420    -2.1350     1.5580 hc         1 6SH       0.059700
     56 H20         -0.5760    -1.6210     3.0030 hc         1 6SH       0.059700
     57 H21          1.8900    -2.1320     1.6530 hc         1 6SH       0.044200
     58 H22          1.8890    -1.2450     3.1870 hc         1 6SH       0.044200
     59 H23          1.6760     0.8840     1.9520 hc         1 6SH       0.053700
     60 H24          3.1230    -0.0030     1.4420 hc         1 6SH       0.053700
     61 H25         -4.5050     0.1320     4.1310 ha         1 6SH       0.140500
     62 H26         -5.3350     1.9140     5.6160 ha         1 6SH       0.153500
     63 H27        -11.1930     5.2750    10.1690 hn         1 6SH       0.454800
     64 H28         -9.4830     5.3620     9.8970 hn         1 6SH       0.454800
     65 H29         -9.5350     0.5890     8.3140 h4         1 6SH       0.044100
     66 H30        -12.8840     1.1370    11.5050 ha         1 6SH       0.149000
     67 H31        -14.1230     1.5920    13.5860 ha         1 6SH       0.140500
     68 H32        -13.4720     3.4870    15.0210 ha         1 6SH       0.138000
     69 H33        -11.5780     4.9280    14.3840 ha         1 6SH       0.140500
     70 H34        -10.3310     4.4790    12.3060 ha         1 6SH       0.149000
     71 HN3         -4.1280    -4.8050     0.1800 hn         1 6SH       0.476467
     72 C10         -5.7910    -0.9630     2.0210 c          1 6SH       0.690700
@<TRIPOS>BOND
     1    35    34 ar
     2    35    36 ar
     3    34    33 ar
     4    36    31 ar
     5    11    30 2
     6    11    15 1
     7    33    32 ar
     8    31    32 ar
     9    31    15 1
    10    30    27 1
    11    15    28 1
    12    28    27 2
    13    28    29 1
    14    27    25 1
    15     7    25 1
    16     7    14 1
    17    25    26 2
    18    14    13 1
    19    24    13 ar
    20    24    23 ar
    21    13    12 ar
    22    23     9 ar
    23    12    10 ar
    24     2     1 1
    25     2    22 1
    26     1    19 1
    27     9    10 ar
    28     9    72 1
    29    16    72 2
    30    22    21 1
    31    72     4 1
    32    19     3 1
    33    19    20 1
    34     3     5 1
    35    21    20 1
    36     4     6 1
    37     5     6 1
    38     6     8 1
    39     8    18 1
    40     8    17 2
    41     1    37 1
    42     1    38 1
    43     2    39 1
    44     2    40 1
    45     3    41 1
    46     3    42 1
    47     4    43 1
    48     5    44 1
    49     5    45 1
    50     6    46 1
    51     7    47 1
    52    10    48 1
    53    12    49 1
    54    14    50 1
    55    14    51 1
    56    18    52 1
    57    18    53 1
    58    19    54 1
    59    20    55 1
    60    20    56 1
    61    21    57 1
    62    21    58 1
    63    22    59 1
    64    22    60 1
    65    23    61 1
    66    24    62 1
    67    29    63 1
    68    29    64 1
    69    30    65 1
    70    32    66 1
    71    33    67 1
    72    34    68 1
    73    35    69 1
    74    36    70 1
    75    71    18 1
@<TRIPOS>SUBSTRUCTURE
     1 6SH         1 TEMP              0 ****  ****    0 ROOT
