@<TRIPOS>MOLECULE
6SJ
   57    62     1     0     0
SMALL
bcc


@<TRIPOS>ATOM
      1 C4           0.0000     0.0000     0.0000 ca         1 6SJ      -0.092000
      2 C5           1.3830     0.0000     0.0000 ca         1 6SJ      -0.071000
      3 C6           2.0740     0.0000     1.1970 ca         1 6SJ      -0.080300
      4 C7           1.3830     0.0010     2.3940 ca         1 6SJ      -0.085000
      5 C8           3.5810    -0.0020     1.1960 c3         1 6SJ      -0.026400
      6 C10          4.1260    -0.7450    -0.0490 c3         1 6SJ       0.100500
      7 N12          4.4640    -2.1270     0.3310 n3         1 6SJ      -0.492600
      8 C13          5.8480    -2.1650     0.8360 c3         1 6SJ       0.158800
      9 C15          5.4960    -0.0370    -0.2790 c3         1 6SJ       0.112500
     10 C20          6.4390     1.7990    -3.2410 cx         1 6SJ      -0.089900
     11 C21          6.4220     3.3110    -3.0130 cx         1 6SJ      -0.089900
     12 C22          4.1230     1.4250     1.0260 c3         1 6SJ       0.092500
     13 C26          3.7020     3.1480     2.5120 ca         1 6SJ      -0.091400
     14 C28          4.7390     3.5440     4.6450 ca         1 6SJ      -0.003600
     15 C2           0.0000     0.0020     2.3940 ca         1 6SJ      -0.029600
     16 C3          -0.6920     0.0060     1.1960 ca         1 6SJ      -0.106000
     17 C14          6.3960    -0.7260     0.7760 c3         1 6SJ      -0.062400
     18 N17          5.2790     1.3670     0.1260 n3         1 6SJ      -0.505600
     19 C18          5.0780     2.2270    -1.0470 c3         1 6SJ       0.161800
     20 C19          6.3940     2.3570    -1.8170 cx         1 6SJ      -0.102700
     21 C23          3.0550     2.3410     0.4850 c          1 6SJ       0.617500
     22 O24          2.4730     2.2290    -0.5730 o          1 6SJ      -0.650500
     23 N25          2.8710     3.3090     1.4020 ns         1 6SJ      -0.009100
     24 C27          3.8330     3.9100     3.6710 ca         1 6SJ      -0.128000
     25 Cl2          4.8950     4.5000     6.0850 cl         1 6SJ      -0.044400
     26 C30          5.5260     2.4170     4.4790 ca         1 6SJ      -0.127000
     27 C31          5.4010     1.6530     3.3320 ca         1 6SJ      -0.020000
     28 C32          4.4980     2.0170     2.3580 ca         1 6SJ      -0.111300
     29 C33          3.5240    -2.6420     1.3350 c3         1 6SJ       0.015800
     30 C34          3.7450    -4.1220     1.5180 c          1 6SJ       0.977600
     31 O35          2.9930    -4.8110     2.3920 o          1 6SJ      -0.892300
     32 O36          4.5980    -4.6890     0.8780 o          1 6SJ      -0.892300
     33 H1          -0.5410     0.0020    -0.9380 ha         1 6SJ       0.101000
     34 H2           1.9250    -0.0030    -0.9380 ha         1 6SJ       0.135000
     35 H3           1.9250     0.0010     3.3320 ha         1 6SJ       0.120000
     36 H4           3.9680    -0.4480     2.1040 hc         1 6SJ       0.083700
     37 H5           3.4670    -0.6830    -0.9060 h1         1 6SJ       0.061700
     38 H7           5.8560    -2.5190     1.8590 h1         1 6SJ       0.033200
     39 H8           6.4490    -2.8140     0.2100 h1         1 6SJ       0.033200
     40 H9           5.8650    -0.1420    -1.2920 h1         1 6SJ       0.058700
     41 H12          7.3640     3.8200    -3.1830 hc         1 6SJ       0.043950
     42 H13          5.4860     3.8080    -3.2370 hc         1 6SJ       0.043950
     43 H14         -1.7750     0.0060     1.1950 ha         1 6SJ       0.105000
     44 H15          6.2920    -0.2400     1.7390 hc         1 6SJ       0.016700
     45 H16          7.4290    -0.7260     0.4510 hc         1 6SJ       0.016700
     46 H18          4.3250     1.7900    -1.6910 h1         1 6SJ       0.029200
     47 H19          4.7510     3.2080    -0.7240 h1         1 6SJ       0.029200
     48 H20          7.3280     2.2850    -1.2720 hc         1 6SJ       0.065700
     49 H21          2.2140     4.0570     1.3010 hn         1 6SJ       0.171500
     50 H22          3.2220     4.7940     3.8070 ha         1 6SJ       0.112000
     51 H23          6.2360     2.1320     5.2460 ha         1 6SJ       0.117000
     52 H24          6.0150     0.7710     3.1990 ha         1 6SJ       0.127000
     53 H25          2.5080    -2.4680     1.0020 h1         1 6SJ       0.012200
     54 H26          3.6870    -2.1340     2.2780 h1         1 6SJ       0.012200
     55 Cl1         -0.8670     0.0030     3.8980 cl         1 6SJ      -0.051400
     56 H10          7.3900     1.3830    -3.5500 hc         1 6SJ       0.043950
     57 H11          5.5120     1.3710    -3.6050 hc         1 6SJ       0.043950
@<TRIPOS>BOND
     1     1     2 ar  
     2     1    16 ar  
     3     1    33 1   
     4     2     3 ar  
     5     2    34 1   
     6     3     4 ar  
     7     3     5 1   
     8     4    15 ar  
     9     4    35 1   
    10     5     6 1   
    11     5    12 1   
    12     5    36 1   
    13     6     7 1   
    14     6     9 1   
    15     6    37 1   
    16     7     8 1   
    17     7    29 1   
    18     8    17 1   
    19     8    38 1   
    20     8    39 1   
    21     9    17 1   
    22     9    18 1   
    23     9    40 1   
    24    10    11 1   
    25    10    20 1   
    26    10    56 1   
    27    10    57 1   
    28    11    20 1   
    29    11    41 1   
    30    11    42 1   
    31    12    18 1   
    32    12    21 1   
    33    12    28 1   
    34    13    23 1   
    35    13    24 ar  
    36    13    28 ar  
    37    14    24 ar  
    38    14    25 1   
    39    14    26 ar  
    40    15    16 ar  
    41    15    55 1   
    42    16    43 1   
    43    17    44 1   
    44    17    45 1   
    45    18    19 1   
    46    19    20 1   
    47    19    46 1   
    48    19    47 1   
    49    20    48 1   
    50    21    22 2   
    51    21    23 1   
    52    23    49 1   
    53    24    50 1   
    54    26    27 ar  
    55    26    51 1   
    56    27    28 ar  
    57    27    52 1   
    58    29    30 1   
    59    29    53 1   
    60    29    54 1   
    61    30    31 1   
    62    30    32 1   
@<TRIPOS>SUBSTRUCTURE
     1 6SJ         1 TEMP              0 ****  ****    0 ROOT
