@<TRIPOS>MOLECULE
6SK
   54    57     1     0     0
SMALL
bcc


@<TRIPOS>ATOM
      1 C2           0.0000     0.0000     0.0000 ca         1 6SK      -0.029600
      2 C3           1.3840     0.0000     0.0000 ca         1 6SK      -0.067000
      3 C4           2.0740     0.0000     1.1970 ca         1 6SK      -0.074000
      4 C5           1.3830    -0.0010     2.3940 ca         1 6SK      -0.086000
      5 C6           0.0020    -0.0010     2.3950 ca         1 6SK      -0.152300
      6 C7          -0.6910    -0.0000     1.1990 ca         1 6SK      -0.092000
      7 C8          -0.7510    -0.0030     3.7010 c3         1 6SK       0.048600
      8 C16         -4.0840    -2.8370     5.7920 c3         1 6SK      -0.059000
      9 C17         -3.5090    -2.3770     7.1330 c3         1 6SK       0.006567
     10 C18         -5.2570    -1.9360     5.4030 c3         1 6SK       0.006567
     11 C19         -4.5710    -4.2820     5.9150 c3         1 6SK       0.006567
     12 C21         -0.0200    -1.9240     5.1400 ca         1 6SK      -0.173300
     13 C23          1.3760    -2.1550     7.0680 ca         1 6SK      -0.112000
     14 C24          1.9650    -3.2730     6.5070 ca         1 6SK      -0.000600
     15 C27          0.5670    -3.0480     4.5650 ca         1 6SK      -0.085400
     16 Cl1         -0.8680     0.0070    -1.5030 cl         1 6SK       0.022600
     17 C10         -2.1440     0.6410     3.5200 c3         1 6SK      -0.102500
     18 N12         -2.3080     1.7720     4.4430 nz         1 6SK      -0.027600
     19 C13         -3.1510    -0.4790     3.8600 c3         1 6SK       0.118800
     20 N14         -2.3940    -1.4160     4.7340 n3         1 6SK      -0.531600
     21 C20         -1.0400    -1.4400     4.1500 c3         1 6SK       0.088500
     22 C22          0.3820    -1.4820     6.3800 ca         1 6SK      -0.020000
     23 Cl2          3.2120    -4.1190     7.3700 cl         1 6SK       0.028600
     24 C26          1.5660    -3.7200     5.2630 ca         1 6SK      -0.104000
     25 N28         -0.0020    -3.3020     3.3150 ns         1 6SK       0.015900
     26 C29         -0.9530    -2.4030     2.9970 c          1 6SK       0.598500
     27 O30         -1.6140    -2.3760     1.9800 o          1 6SK      -0.637500
     28 H1           1.9250     0.0000    -0.9380 ha         1 6SK       0.129000
     29 H2           3.1580     0.0000     1.1970 ha         1 6SK       0.122000
     30 H3           1.9250    -0.0010     3.3320 ha         1 6SK       0.114000
     31 H4          -1.7740    -0.0000     1.2000 ha         1 6SK       0.123000
     32 H5          -0.1920     0.5230     4.4660 hc         1 6SK       0.048700
     33 H6          -3.2990    -2.7220     3.6770 h1         1 6SK       0.037700
     34 H7          -2.2420    -3.5140     4.8740 h1         1 6SK       0.037700
     35 H8          -4.2570    -2.5010     7.9080 hc         1 6SK       0.009367
     36 H9          -2.6370    -2.9710     7.3750 hc         1 6SK       0.009367
     37 H10         -3.2280    -1.3330     7.0660 hc         1 6SK       0.009367
     38 H11         -5.0430    -0.9160     5.7000 hc         1 6SK       0.009367
     39 H12         -6.1550    -2.2760     5.9030 hc         1 6SK       0.009367
     40 H13         -5.4030    -1.9760     4.3300 hc         1 6SK       0.009367
     41 H14         -4.9330    -4.6250     4.9530 hc         1 6SK       0.009367
     42 H15         -5.3740    -4.3320     6.6410 hc         1 6SK       0.009367
     43 H16         -3.7520    -4.9140     6.2380 hc         1 6SK       0.009367
     44 H17          1.7450    -1.7620     8.0080 ha         1 6SK       0.129000
     45 H18         -2.2760     0.9640     2.4940 hx         1 6SK       0.122700
     46 H19         -2.4390     2.1270     3.5170 hn         1 6SK       0.258467
     47 H20         -3.1380     1.7400     5.0010 hn         1 6SK       0.258467
     48 H22         -3.4710    -0.9840     2.9560 h1         1 6SK       0.062700
     49 H23         -4.0010    -0.0710     4.3930 h1         1 6SK       0.062700
     50 H25         -0.0810    -0.6060     6.8180 ha         1 6SK       0.097000
     51 H26          2.0320    -4.5970     4.8290 ha         1 6SK       0.130000
     52 H27          0.2670    -4.0640     2.7230 hn         1 6SK       0.192500
     53 C15         -2.9980    -2.7550     4.7170 c3         1 6SK       0.144800
     54 H123        -1.4630     2.0750     4.8870 hn         1 6SK       0.258467
@<TRIPOS>BOND
     1     1     2 ar  
     2     1     6 ar  
     3     1    16 1   
     4     2     3 ar  
     5     2    28 1   
     6     3     4 ar  
     7     3    29 1   
     8     4     5 ar  
     9     4    30 1   
    10     5     6 ar  
    11     5     7 1   
    12     6    31 1   
    13     7    17 1   
    14     7    21 1   
    15     7    32 1   
    16     8     9 1   
    17     8    10 1   
    18     8    11 1   
    19     8    53 1   
    20     9    35 1   
    21     9    36 1   
    22     9    37 1   
    23    10    38 1   
    24    10    39 1   
    25    10    40 1   
    26    11    41 1   
    27    11    42 1   
    28    11    43 1   
    29    12    15 ar  
    30    12    21 1   
    31    12    22 ar  
    32    13    14 ar  
    33    13    22 ar  
    34    13    44 1   
    35    14    23 1   
    36    14    24 ar  
    37    15    24 ar  
    38    15    25 1   
    39    17    18 1   
    40    17    19 1   
    41    17    45 1   
    42    18    46 1   
    43    18    47 1   
    44    18    54 1   
    45    19    20 1   
    46    19    48 1   
    47    19    49 1   
    48    20    21 1   
    49    20    53 1   
    50    21    26 1   
    51    22    50 1   
    52    24    51 1   
    53    25    26 1   
    54    25    52 1   
    55    26    27 2   
    56    33    53 1   
    57    34    53 1   
@<TRIPOS>SUBSTRUCTURE
     1 6SK         1 TEMP              0 ****  ****    0 ROOT
