@<TRIPOS>MOLECULE
molecule
   54    57     1     0     0
SMALL
bcc


@<TRIPOS>ATOM
      1 C2           0.0000     0.0000     0.0000 ca         1 6SK       0.039400
      2 C3           1.3840     0.0000     0.0000 ca         1 6SK      -0.093000
      3 C4           2.0740     0.0000     1.1970 ca         1 6SK      -0.106000
      4 C5           1.3830    -0.0010     2.3940 ca         1 6SK      -0.106000
      5 C6           0.0020    -0.0010     2.3950 ca         1 6SK      -0.140300
      6 C7          -0.6910    -0.0000     1.1990 ca         1 6SK      -0.113000
      7 C8          -0.7510    -0.0030     3.7010 c3         1 6SK       0.002600
      8 C16         -4.0840    -2.8370     5.7920 c3         1 6SK      -0.056000
      9 C17         -3.5090    -2.3770     7.1330 c3         1 6SK      -0.081100
     10 C18         -5.2570    -1.9360     5.4030 c3         1 6SK      -0.081100
     11 C19         -4.5710    -4.2820     5.9150 c3         1 6SK      -0.081100
     12 C21         -0.0200    -1.9240     5.1400 ca         1 6SK      -0.156300
     13 C23          1.3760    -2.1550     7.0680 ca         1 6SK      -0.141000
     14 C24          1.9650    -3.2730     6.5070 ca         1 6SK       0.075400
     15 C27          0.5670    -3.0480     4.5650 ca         1 6SK       0.069600
     16 Cl1         -0.8680     0.0070    -1.5030 cl         1 6SK      -0.068400
     17 C10         -2.1440     0.6410     3.5200 c3         1 6SK       0.059500
     18 N12         -2.3080     1.7720     4.4430 nz         1 6SK      -0.860600
     19 C13         -3.1510    -0.4790     3.8600 c3         1 6SK       0.119800
     20 N14         -2.3940    -1.4160     4.7340 n3         1 6SK      -0.691600
     21 C20         -1.0400    -1.4400     4.1500 c3         1 6SK       0.128500
     22 C22          0.3820    -1.4820     6.3800 ca         1 6SK      -0.056000
     23 Cl2          3.2120    -4.1190     7.3700 cl         1 6SK      -0.061400
     24 C26          1.5660    -3.7200     5.2630 ca         1 6SK      -0.145000
     25 N28         -0.0020    -3.3020     3.3150 ns         1 6SK      -0.447100
     26 C29         -0.9530    -2.4030     2.9970 c          1 6SK       0.700500
     27 O30         -1.6140    -2.3760     1.9800 o          1 6SK      -0.594500
     28 H1           1.9250     0.0000    -0.9380 ha         1 6SK       0.164000
     29 H2           3.1580     0.0000     1.1970 ha         1 6SK       0.157000
     30 H3           1.9250    -0.0010     3.3320 ha         1 6SK       0.143000
     31 H4          -1.7740    -0.0000     1.2000 ha         1 6SK       0.139000
     32 H5          -0.1920     0.5230     4.4660 hc         1 6SK       0.080700
     33 H6          -3.2990    -2.7220     3.6770 h1         1 6SK       0.060200
     34 H7          -2.2420    -3.5140     4.8740 h1         1 6SK       0.060200
     35 H8          -4.2570    -2.5010     7.9080 hc         1 6SK       0.040256
     36 H9          -2.6370    -2.9710     7.3750 hc         1 6SK       0.040256
     37 H10         -3.2280    -1.3330     7.0660 hc         1 6SK       0.040256
     38 H11         -5.0430    -0.9160     5.7000 hc         1 6SK       0.040256
     39 H12         -6.1550    -2.2760     5.9030 hc         1 6SK       0.040256
     40 H13         -5.4030    -1.9760     4.3300 hc         1 6SK       0.040256
     41 H14         -4.9330    -4.6250     4.9530 hc         1 6SK       0.040256
     42 H15         -5.3740    -4.3320     6.6410 hc         1 6SK       0.040256
     43 H16         -3.7520    -4.9140     6.2380 hc         1 6SK       0.040256
     44 H17          1.7450    -1.7620     8.0080 ha         1 6SK       0.162000
     45 H18         -2.2760     0.9640     2.4940 hx         1 6SK       0.134700
     46 H19         -2.4390     2.1270     3.5170 hn         1 6SK       0.478800
     47 H20         -3.1380     1.7400     5.0010 hn         1 6SK       0.478800
     48 H22         -3.4710    -0.9840     2.9560 h1         1 6SK       0.088700
     49 H23         -4.0010    -0.0710     4.3930 h1         1 6SK       0.088700
     50 H25         -0.0810    -0.6060     6.8180 ha         1 6SK       0.132000
     51 H26          2.0320    -4.5970     4.8290 ha         1 6SK       0.162000
     52 H27          0.2670    -4.0640     2.7230 hn         1 6SK       0.357500
     53 C15         -2.9980    -2.7550     4.7170 c3         1 6SK       0.158800
     54 H123        -1.4630     2.0750     4.8870 hn         1 6SK       0.478800
@<TRIPOS>BOND
     1    16     1 1   
     2     1     6 ar  
     3     1     2 ar  
     4     6     5 ar  
     5    18    17 1   
     6     2     3 ar  
     7     5     7 1   
     8     5     4 ar  
     9     7    17 1   
    10     7    21 1   
    11     3     4 ar  
    12    22    13 ar  
    13    22    12 ar  
    14    13    14 ar  
    15    17    19 1   
    16    19    20 1   
    17    12    21 1   
    18    12    15 ar  
    19    11     8 1   
    20    21    20 1   
    21    21    26 1   
    22    14    23 1   
    23    14    24 ar  
    24    20    53 1   
    25     9     8 1   
    26    15    24 ar  
    27    15    25 1   
    28     8    53 1   
    29     8    10 1   
    30    26    25 1   
    31    26    27 2   
    32     2    28 1   
    33     3    29 1   
    34     4    30 1   
    35     6    31 1   
    36     7    32 1   
    37    53    33 1   
    38    53    34 1   
    39     9    35 1   
    40     9    36 1   
    41     9    37 1   
    42    10    38 1   
    43    10    39 1   
    44    10    40 1   
    45    11    41 1   
    46    11    42 1   
    47    11    43 1   
    48    13    44 1   
    49    17    45 1   
    50    18    46 1   
    51    18    47 1   
    52    19    48 1   
    53    19    49 1   
    54    22    50 1   
    55    24    51 1   
    56    25    52 1   
    57    54    18 1   
@<TRIPOS>SUBSTRUCTURE
     1 6SK         1 TEMP              0 ****  ****    0 ROOT
