@<TRIPOS>MOLECULE
molecule
   24    26     1     0     0
SMALL
bcc


@<TRIPOS>ATOM
      1 C1           0.0000     0.0000     0.0000 ca         1 6SL      -0.145000
      2 C2           1.3870     0.0000     0.0000 ca         1 6SL      -0.111000
      3 C3           2.0870     0.0000     1.1880 ca         1 6SL      -0.129000
      4 C7           0.6410     0.0010     4.4730 cc         1 6SL       0.473400
      5 C8           0.5980    -0.0000     5.9510 ca         1 6SL      -0.227200
      6 C9          -0.6280    -0.0060     6.6270 ca         1 6SL      -0.049000
      7 C10         -0.6140    -0.0070     8.0110 ca         1 6SL      -0.256300
      8 C11          0.6000    -0.0020     8.6760 ca         1 6SL       0.428200
      9 C12          1.7780    -0.0020     6.6960 ca         1 6SL       0.427200
     10 N3           1.7390     0.0040     8.0120 nb         1 6SL      -0.688000
     11 N2           1.7830     0.0010     3.7190 na         1 6SL      -0.259300
     12 C4           1.3970     0.0000     2.3930 ca         1 6SL      -0.089200
     13 N1          -0.4090     0.0010     3.6880 nd         1 6SL      -0.595100
     14 C5          -0.0100     0.0010     2.3930 ca         1 6SL       0.093400
     15 C6          -0.6970     0.0050     1.1750 ca         1 6SL      -0.069000
     16 H1          -0.5360    -0.0000    -0.9410 ha         1 6SL       0.134000
     17 H2           1.9250    -0.0040    -0.9410 ha         1 6SL       0.134000
     18 H3           3.1700    -0.0000     1.1820 ha         1 6SL       0.128000
     19 H4          -1.5640    -0.0100     6.0810 ha         1 6SL       0.167000
     20 H5          -1.5430    -0.0120     8.5680 ha         1 6SL       0.145000
     21 H6           0.6140    -0.0000     9.7590 h4         1 6SL       0.026100
     22 H7           2.7340     0.0040     6.1860 h4         1 6SL       0.015100
     23 H8           2.7140     0.1340     4.0610 hn         1 6SL       0.303700
     24 H10         -1.7800     0.0050     1.1630 ha         1 6SL       0.142000
@<TRIPOS>BOND
     1     7     6 ar
     2     7     8 ar
     3     6     5 ar
     4    13    14 1
     5    13     4 2
     6    15    14 ar
     7    15     1 ar
     8     8    10 ar
     9    14    12 ar
    10     5     4 1
    11     5     9 ar
    12     4    11 1
    13     1     2 ar
    14    10     9 ar
    15    12    11 1
    16    12     3 ar
    17     2     3 ar
    18     1    16 1
    19     2    17 1
    20     3    18 1
    21     6    19 1
    22     7    20 1
    23     8    21 1
    24     9    22 1
    25    11    23 1
    26    15    24 1
@<TRIPOS>SUBSTRUCTURE
     1 6SL         1 TEMP              0 ****  ****    0 ROOT
