@<TRIPOS>MOLECULE
molecule
   12    12     1     0     0
SMALL
bcc


@<TRIPOS>ATOM
      1 O2           0.0000     0.0000     0.0000 o          1 6SM      -0.800300
      2 C5           1.3460     0.0000     0.0000 c          1 6SM       0.773100
      3 O1           1.9540     0.0000     1.0510 o          1 6SM      -0.800300
      4 C2           2.0880    -0.0010    -1.2850 ca         1 6SM       0.451800
      5 N1           1.4330    -0.0020    -2.4440 nb         1 6SM      -0.680000
      6 C3           3.4840     0.0050    -1.2990 ca         1 6SM      -0.203200
      7 Cl           4.3910     0.0120     0.1820 cl         1 6SM      -0.077400
      8 C4           4.1300     0.0030    -2.5290 ca         1 6SM       0.419200
      9 N2           3.4050    -0.0030    -3.6350 nb         1 6SM      -0.771000
     10 C1           2.0870    -0.0030    -3.5850 ca         1 6SM       0.634900
     11 H2           5.2120     0.0050    -2.5820 h4         1 6SM       0.013100
     12 H3           1.5260    -0.0060    -4.5120 h5         1 6SM       0.038100
@<TRIPOS>BOND
     1     9    10 ar  
     2     9     8 ar  
     3    10     5 ar  
     4     8     6 ar  
     5     5     4 ar  
     6     6     4 ar  
     7     6     7 1   
     8     4     2 1   
     9     2     3 1   
    10     2     1 1   
    11     8    11 1   
    12    10    12 1   
@<TRIPOS>SUBSTRUCTURE
     1 6SM         1 TEMP              0 ****  ****    0 ROOT
