@<TRIPOS>MOLECULE
6SN
   21    22     1     0     0
SMALL
bcc


@<TRIPOS>ATOM
      1 C1           0.0000     0.0000     0.0000 ca         1 6SN      -0.082000
      2 C2           1.3830     0.0000     0.0000 ca         1 6SN      -0.042600
      3 C3           2.0810     0.0000     1.1970 ca         1 6SN      -0.031600
      4 C7          -2.0920     0.0030     3.8350 cc         1 6SN      -0.317300
      5 C8          -2.3700     0.0050     5.2090 cc         1 6SN       0.482200
      6 Cl1          2.2480    -0.0000    -1.5050 cl         1 6SN       0.001600
      7 Cl           3.8170    -0.0000     1.1890 cl         1 6SN       0.000600
      8 C4           1.3990     0.0010     2.3970 ca         1 6SN      -0.102000
      9 C5           0.0030     0.0010     2.4020 ca         1 6SN       0.008000
     10 C           -0.6930     0.0000     1.1930 ca         1 6SN      -0.075000
     11 C6          -0.7350     0.0020     3.6850 cd         1 6SN      -0.200300
     12 N1          -0.1850     0.0040     4.9310 na         1 6SN       0.457400
     13 N           -1.2320     0.0110     5.8620 nd         1 6SN      -0.663800
     14 H1          -0.5400    -0.0000    -0.9390 ha         1 6SN       0.119000
     15 H2          -2.8230    -0.0010     3.0360 ha         1 6SN       0.139000
     16 H3           1.9450     0.0010     3.3320 ha         1 6SN       0.112000
     17 H4          -1.7770    -0.0000     1.1900 ha         1 6SN       0.120000
     18 H5           0.7930     0.0050     5.1440 hn         1 6SN       0.149700
     19 H6          -4.1000     0.8670     6.0010 hn         1 6SN       0.271800
     20 H7          -4.0930    -0.8660     6.0050 hn         1 6SN       0.271800
     21 N2          -3.6460     0.0020     5.7860 nv         1 6SN      -0.620500
@<TRIPOS>BOND
     1     1     2 ar  
     2     1    10 ar  
     3     1    14 1   
     4     2     3 ar  
     5     2     6 1   
     6     3     7 1   
     7     3     8 ar  
     8     4     5 1   
     9     4    11 2   
    10     4    15 1   
    11     5    13 2   
    12     5    21 1   
    13     8     9 ar  
    14     8    16 1   
    15     9    10 ar  
    16     9    11 1   
    17    10    17 1   
    18    11    12 1   
    19    12    13 1   
    20    12    18 1   
    21    19    21 1   
    22    20    21 1   
@<TRIPOS>SUBSTRUCTURE
     1 6SN         1 TEMP              0 ****  ****    0 ROOT
