@<TRIPOS>MOLECULE
molecule
   21    22     1     0     0
SMALL
bcc


@<TRIPOS>ATOM
      1 C1           0.0000     0.0000     0.0000 ca         1 6SN      -0.109000
      2 C2           1.3830     0.0000     0.0000 ca         1 6SN       0.031400
      3 C3           2.0810     0.0000     1.1970 ca         1 6SN       0.035400
      4 C7          -2.0920     0.0030     3.8350 cc         1 6SN      -0.332300
      5 C8          -2.3700     0.0050     5.2090 cc         1 6SN       0.594200
      6 Cl1          2.2480    -0.0000    -1.5050 cl         1 6SN      -0.081400
      7 Cl           3.8170    -0.0000     1.1890 cl         1 6SN      -0.081400
      8 C4           1.3990     0.0010     2.3970 ca         1 6SN      -0.114000
      9 C5           0.0030     0.0010     2.4020 ca         1 6SN      -0.008000
     10 C           -0.6930     0.0000     1.1930 ca         1 6SN      -0.099000
     11 C6          -0.7350     0.0020     3.6850 cd         1 6SN      -0.032300
     12 N1          -0.1850     0.0040     4.9310 na         1 6SN      -0.038600
     13 N           -1.2320     0.0110     5.8620 nd         1 6SN      -0.515800
     14 H1          -0.5400    -0.0000    -0.9390 ha         1 6SN       0.154000
     15 H2          -2.8230    -0.0010     3.0360 ha         1 6SN       0.158000
     16 H3           1.9450     0.0010     3.3320 ha         1 6SN       0.143000
     17 H4          -1.7770    -0.0000     1.1900 ha         1 6SN       0.150000
     18 H5           0.7930     0.0050     5.1440 hn         1 6SN       0.332700
     19 H6          -4.1000     0.8670     6.0010 hn         1 6SN       0.437800
     20 H7          -4.0930    -0.8660     6.0050 hn         1 6SN       0.437800
     21 N2          -3.6460     0.0020     5.7860 nv         1 6SN      -1.061500
@<TRIPOS>BOND
     1     6     2 1   
     2     1     2 ar  
     3     1    10 ar  
     4     2     3 ar  
     5    10     9 ar  
     6     3     7 1   
     7     3     8 ar  
     8     9     8 ar  
     9     9    11 1   
    10    12    11 1   
    11    12    13 1   
    12    11     4 2   
    13    13     5 2   
    14     4     5 1   
    15     5    21 1   
    16     1    14 1   
    17     4    15 1   
    18     8    16 1   
    19    10    17 1   
    20    12    18 1   
    21    21    19 1   
    22    21    20 1   
@<TRIPOS>SUBSTRUCTURE
     1 6SN         1 TEMP              0 ****  ****    0 ROOT
