@<TRIPOS>MOLECULE
6SO
   25    26     1     0     0
SMALL
bcc


@<TRIPOS>ATOM
      1 C1           0.0000     0.0000     0.0000 ca         1 6SO      -0.071000
      2 C2           1.3780     0.0000     0.0000 ca         1 6SO      -0.068000
      3 C3           2.0720     0.0000     1.2050 ca         1 6SO      -0.219200
      4 C7           2.3600     0.0030     3.4810 cc         1 6SO      -0.211400
      5 C8           3.5630     0.0020     2.8860 cd         1 6SO      -0.221100
      6 C9           2.0940     0.0030     4.9650 c3         1 6SO       0.086800
      7 C10          1.8800    -1.4320     5.4450 c3         1 6SO      -0.062200
      8 C6          -0.7080     0.0050     1.1940 ca         1 6SO      -0.039600
      9 C5          -0.0410     0.0120     2.3990 ca         1 6SO      -0.075000
     10 C4           1.3550     0.0010     2.4150 ca         1 6SO      -0.081800
     11 N2           1.6200    -1.4320     6.8910 nz         1 6SO       0.083400
     12 N1           3.4110     0.0020     1.5270 na         1 6SO       0.368600
     13 H1          -0.5360    -0.0040    -0.9410 ha         1 6SO       0.127000
     14 H2           1.9210    -0.0040    -0.9380 ha         1 6SO       0.115000
     15 H3           4.5930     0.1060     3.2060 h4         1 6SO       0.141000
     16 H4           1.2080     0.5900     5.1730 hc         1 6SO       0.028200
     17 H5           2.9420     0.4350     5.4830 hc         1 6SO       0.028200
     18 H6           2.7660    -2.0190     5.2380 hx         1 6SO       0.087700
     19 H7           1.0320    -1.8640     4.9270 hx         1 6SO       0.087700
     20 H8          -0.5960     0.0160     3.3290 ha         1 6SO       0.100000
     21 H9           2.4090    -1.0470     7.3720 hn         1 6SO       0.221133
     22 H10          0.8090    -0.8780     7.0840 hn         1 6SO       0.221133
     23 H12          4.2010    -0.0010     0.9120 hn         1 6SO       0.131700
     24 Cl          -2.4440     0.0050     1.1680 cl         1 6SO       0.000600
     25 H23          1.4650    -2.3700     7.2030 hn         1 6SO       0.221133
@<TRIPOS>BOND
     1     1     2 ar  
     2     1     8 ar  
     3     1    13 1   
     4     2     3 ar  
     5     2    14 1   
     6     3    10 ar  
     7     3    12 1   
     8     4     5 2   
     9     4     6 1   
    10     4    10 1   
    11     5    12 1   
    12     5    15 1   
    13     6     7 1   
    14     6    16 1   
    15     6    17 1   
    16     7    11 1   
    17     7    18 1   
    18     7    19 1   
    19     8     9 ar  
    20     8    24 1   
    21     9    10 ar  
    22     9    20 1   
    23    11    21 1   
    24    11    22 1   
    25    11    25 1   
    26    12    23 1   
@<TRIPOS>SUBSTRUCTURE
     1 6SO         1 TEMP              0 ****  ****    0 ROOT
