@<TRIPOS>MOLECULE
molecule
   25    26     1     0     0
SMALL
bcc


@<TRIPOS>ATOM
      1 C1           0.0000     0.0000     0.0000 ca         1 6SO      -0.090000
      2 C2           1.3780     0.0000     0.0000 ca         1 6SO      -0.115000
      3 C3           2.0720     0.0000     1.2050 ca         1 6SO      -0.029200
      4 C7           2.3600     0.0030     3.4810 cc         1 6SO      -0.202400
      5 C8           3.5630     0.0020     2.8860 cd         1 6SO      -0.055100
      6 C9           2.0940     0.0030     4.9650 c3         1 6SO      -0.012200
      7 C10          1.8800    -1.4320     5.4450 c3         1 6SO       0.088800
      8 C6          -0.7080     0.0050     1.1940 ca         1 6SO       0.023400
      9 C5          -0.0410     0.0120     2.3990 ca         1 6SO      -0.100000
     10 C4           1.3550     0.0010     2.4150 ca         1 6SO      -0.092800
     11 N2           1.6200    -1.4320     6.8910 nz         1 6SO      -0.812600
     12 N1           3.4110     0.0020     1.5270 na         1 6SO      -0.172400
     13 H1          -0.5360    -0.0040    -0.9410 ha         1 6SO       0.162000
     14 H2           1.9210    -0.0040    -0.9380 ha         1 6SO       0.149000
     15 H3           4.5930     0.1060     3.2060 h4         1 6SO       0.171000
     16 H4           1.2080     0.5900     5.1730 hc         1 6SO       0.064700
     17 H5           2.9420     0.4350     5.4830 hc         1 6SO       0.064700
     18 H6           2.7660    -2.0190     5.2380 hx         1 6SO       0.115200
     19 H7           1.0320    -1.8640     4.9270 hx         1 6SO       0.115200
     20 H8          -0.5960     0.0160     3.3290 ha         1 6SO       0.130000
     21 H9           2.4090    -1.0470     7.3720 hn         1 6SO       0.454800
     22 H10          0.8090    -0.8780     7.0840 hn         1 6SO       0.454800
     23 H12          4.2010    -0.0010     0.9120 hn         1 6SO       0.316700
     24 Cl          -2.4440     0.0050     1.1680 cl         1 6SO      -0.084400
     25 H23          1.4650    -2.3700     7.2030 hn         1 6SO       0.454800
@<TRIPOS>BOND
     1    11     7 1   
     2     7     6 1   
     3     6     4 1   
     4     4     5 2   
     5     4    10 1   
     6     5    12 1   
     7     9    10 ar  
     8     9     8 ar  
     9    10     3 ar  
    10    24     8 1   
    11     8     1 ar  
    12    12     3 1   
    13     3     2 ar  
    14     1     2 ar  
    15     1    13 1   
    16     2    14 1   
    17     5    15 1   
    18     6    16 1   
    19     6    17 1   
    20     7    18 1   
    21     7    19 1   
    22     9    20 1   
    23    11    21 1   
    24    11    22 1   
    25    12    23 1   
    26    25    11 1   
@<TRIPOS>SUBSTRUCTURE
     1 6SO         1 TEMP              0 ****  ****    0 ROOT
