@<TRIPOS>MOLECULE
6SP
   15    15     1     0     0
SMALL
bcc


@<TRIPOS>ATOM
      1 O1           0.0000     0.0000     0.0000 oh         1 6SP      -0.585800
      2 C2           1.4290     0.0000     0.0000 c3         1 6SP       0.181100
      3 C3           1.9640     0.0000     1.4440 c3         1 6SP       0.122800
      4 N4           2.7800     1.2220     1.6050 n7         1 6SP      -0.585200
      5 C5           2.2570     2.1920     0.6080 c3         1 6SP       0.146800
      6 C6           1.9650     1.3060    -0.6290 c3         1 6SP      -0.045400
      7 HO1         -0.3140    -0.7610    -0.4590 ho         1 6SP       0.389000
      8 H2           1.8100    -0.8580    -0.5400 h1         1 6SP       0.003700
      9 H3           1.1360     0.0150     2.1430 h1         1 6SP       0.018700
     10 H3A          2.5780    -0.8770     1.6090 h1         1 6SP       0.018700
     11 HN4          2.6530     1.5900     2.5270 hn         1 6SP       0.252800
     12 H5           1.3460     2.6550     0.9680 h1         1 6SP       0.013200
     13 H5A          3.0070     2.9380     0.3730 h1         1 6SP       0.013200
     14 H6           2.8750     1.1160    -1.1850 hc         1 6SP       0.029200
     15 H6A          1.2120     1.7650    -1.2570 hc         1 6SP       0.029200
@<TRIPOS>BOND
     1     1     2 1   
     2     1     7 1   
     3     2     3 1   
     4     2     6 1   
     5     2     8 1   
     6     3     4 1   
     7     3     9 1   
     8     3    10 1   
     9     4     5 1   
    10     4    11 1   
    11     5     6 1   
    12     5    12 1   
    13     5    13 1   
    14     6    14 1   
    15     6    15 1   
@<TRIPOS>SUBSTRUCTURE
     1 6SP         1 TEMP              0 ****  ****    0 ROOT
