@<TRIPOS>MOLECULE
molecule
   44    46     1     0     0
SMALL
bcc


@<TRIPOS>ATOM
      1 C10          0.0000     0.0000     0.0000 c3         1 6SQ       0.165800
      2 N11          1.4690     0.0000     0.0000 nh         1 6SQ      -0.593000
      3 C13          1.5480     1.2720     2.0930 c3         1 6SQ      -0.070400
      4 O14         -0.6970     3.5710     2.0970 o          1 6SQ      -0.516100
      5 C17          3.3420    -1.2540    -0.8450 ca         1 6SQ      -0.187500
      6 C19          2.9560    -3.2160    -2.1640 ca         1 6SQ      -0.212600
      7 C20          1.5730    -3.0340    -2.0360 ca         1 6SQ      -0.052000
      8 C21          1.0870    -1.9710    -1.3310 ca         1 6SQ      -0.187500
      9 C23          3.4820    -4.3500    -2.9310 c          1 6SQ       0.578700
     10 C24          4.9700    -4.5430    -3.0670 c3         1 6SQ      -0.191100
     11 C1          -0.4340     2.6010     2.7760 c          1 6SQ       0.582700
     12 C2          -0.5550     2.6720     4.2400 ca         1 6SQ      -0.169600
     13 C3          -0.9730     3.8570     4.8540 ca         1 6SQ      -0.063000
     14 C4          -1.0850     3.9160     6.2280 ca         1 6SQ       0.013400
     15 C5          -0.7840     2.8050     6.9990 ca         1 6SQ      -0.094000
     16 C6          -0.3690     1.6290     6.3980 ca         1 6SQ      -0.134000
     17 C7          -0.2590     1.5540     5.0250 ca         1 6SQ      -0.094000
     18 C8           0.0170     1.3230     2.1180 c3         1 6SQ      -0.168700
     19 C9          -0.5110     1.2710     0.6820 c3         1 6SQ      -0.070400
     20 C12          1.9990     0.0000     1.3700 c3         1 6SQ       0.165800
     21 C16          1.9660    -1.0750    -0.7260 ca         1 6SQ       0.136600
     22 C18          3.8360    -2.3090    -1.5580 ca         1 6SQ      -0.052000
     23 Cl          -1.6030     5.3860     6.9930 cl         1 6SQ      -0.098400
     24 O25          2.7180    -5.1340    -3.4550 o          1 6SQ      -0.536100
     25 H1          -0.3600    -0.8670     0.5400 h1         1 6SQ       0.046200
     26 H2          -0.3600    -0.0300    -1.0210 h1         1 6SQ       0.046200
     27 H3           1.9250     1.2620     3.1080 hc         1 6SQ       0.063950
     28 H4           1.9290     2.1390     1.5680 hc         1 6SQ       0.063950
     29 H5           4.0210    -0.5520    -0.3760 ha         1 6SQ       0.141000
     30 H6           0.8890    -3.7310    -2.5060 ha         1 6SQ       0.143500
     31 H7           0.0180    -1.8300    -1.2320 ha         1 6SQ       0.141000
     32 H8           5.4100    -4.6660    -2.0850 hc         1 6SQ       0.060367
     33 H9           5.4040    -3.6760    -3.5520 hc         1 6SQ       0.060367
     34 H10          5.1670    -5.4260    -3.6640 hc         1 6SQ       0.060367
     35 H11         -1.2080     4.7270     4.2520 ha         1 6SQ       0.167000
     36 H12         -0.8710     2.8580     8.0770 ha         1 6SQ       0.147000
     37 H13         -0.1380     0.7630     7.0070 ha         1 6SQ       0.141000
     38 H14          0.0660     0.6320     4.5560 ha         1 6SQ       0.138000
     39 H15         -0.3620     0.4720     2.6720 hc         1 6SQ       0.062700
     40 H16         -1.5950     1.2620     0.6970 hc         1 6SQ       0.063950
     41 H17         -0.1600     2.1390     0.1370 hc         1 6SQ       0.063950
     42 H18          3.0810    -0.0300     1.3360 h1         1 6SQ       0.046200
     43 H19          1.6240    -0.8670     1.9000 h1         1 6SQ       0.046200
     44 H20          4.9060    -2.4460    -1.6520 ha         1 6SQ       0.143500
@<TRIPOS>BOND
     1    15    16 ar
     2    15    14 ar
     3    16    17 ar
     4    23    14 1
     5    14    13 ar
     6    17    12 ar
     7     4    11 2
     8    13    12 ar
     9    12    11 1
    10    11    18 1
    11    18    19 1
    12    18     3 1
    13    19     1 1
    14     1     2 1
    15     3    20 1
    16     2    20 1
    17     2    21 1
    18    21     5 ar
    19    21     8 ar
    20     5    22 ar
    21     8     7 ar
    22    22     6 ar
    23     7     6 ar
    24     6     9 1
    25     9    24 2
    26     9    10 1
    27     1    25 1
    28     1    26 1
    29     3    27 1
    30     3    28 1
    31     5    29 1
    32     7    30 1
    33     8    31 1
    34    10    32 1
    35    10    33 1
    36    10    34 1
    37    13    35 1
    38    15    36 1
    39    16    37 1
    40    17    38 1
    41    18    39 1
    42    19    40 1
    43    19    41 1
    44    20    42 1
    45    20    43 1
    46    22    44 1
@<TRIPOS>SUBSTRUCTURE
     1 6SQ         1 TEMP              0 ****  ****    0 ROOT
