@<TRIPOS>MOLECULE
6SR
   47    51     1     0     0
SMALL
bcc


@<TRIPOS>ATOM
      1 C1           0.0000     0.0000     0.0000 c          1 6SR       0.618700
      2 C2           1.4760     0.0000     0.0000 ca         1 6SR      -0.154600
      3 C3           2.1760     0.0000     1.2100 ca         1 6SR      -0.028000
      4 C4           3.5580     0.0000     1.2060 ca         1 6SR       0.047100
      5 C5           4.2510    -0.0010    -0.0050 ca         1 6SR       0.076100
      6 C6           3.5540     0.0010    -1.2060 ca         1 6SR      -0.097000
      7 C7           2.1760    -0.0060    -1.2090 ca         1 6SR      -0.092000
      8 O8           4.4630    -0.0000     2.2270 os         1 6SR      -0.310900
      9 C9           5.7090    -0.4130     1.6340 c3         1 6SR       0.432200
     10 O10          5.5890     0.0010     0.2600 os         1 6SR      -0.313900
     11 O11         -0.6080    -0.6700     0.8120 o          1 6SR      -0.641100
     12 N12         -0.6740     0.7480    -0.8970 n          1 6SR      -0.155800
     13 C13          0.0380     1.6570    -1.8070 c3         1 6SR       0.037000
     14 C14         -0.6100     3.0430    -1.7150 c3         1 6SR       0.118300
     15 N15         -2.0530     2.9230    -1.9610 nh         1 6SR      -0.356000
     16 C16         -2.7020     2.0990    -0.9310 c3         1 6SR       0.118300
     17 C17         -2.1390     0.6710    -0.9940 c3         1 6SR       0.037000
     18 C18         -2.6500     4.1740    -2.0470 ca         1 6SR       0.057600
     19 C19         -1.8780     5.3240    -1.9030 ca         1 6SR      -0.197000
     20 C20         -2.4620     6.5540    -1.9870 ca         1 6SR       0.017000
     21 C21         -3.8450     6.6660    -2.2190 ca         1 6SR      -0.237600
     22 C22         -4.6130     5.5070    -2.3630 ca         1 6SR      -0.027300
     23 C23         -4.0180     4.2770    -2.2820 ca         1 6SR      -0.136000
     24 C24         -6.0560     5.8840    -2.6020 c3         1 6SR       0.034900
     25 C25         -6.1060     7.4180    -2.5920 c3         1 6SR      -0.126400
     26 C26         -4.6850     7.8630    -2.3470 c          1 6SR       0.646700
     27 O27         -4.3030     9.0120    -2.2690 o          1 6SR      -0.553100
     28 H1           1.6370     0.0590     2.1480 ha         1 6SR       0.129000
     29 H2           4.0960    -0.0040    -2.1440 ha         1 6SR       0.116000
     30 H3           1.6380    -0.0870    -2.1450 ha         1 6SR       0.120000
     31 H4           6.5320     0.1110     2.1060 h2         1 6SR       0.017200
     32 H5          -0.0380     1.2880    -2.8230 h1         1 6SR       0.042200
     33 H6           1.0790     1.7230    -1.5140 h1         1 6SR       0.042200
     34 H7          -0.1710     3.6960    -2.4590 h1         1 6SR       0.029450
     35 H8          -0.4460     3.4520    -0.7250 h1         1 6SR       0.029450
     36 H9          -3.7700     2.0740    -1.1090 h1         1 6SR       0.029450
     37 H10         -2.5030     2.5220     0.0470 h1         1 6SR       0.029450
     38 H11         -2.4180     0.2110    -1.9350 h1         1 6SR       0.042200
     39 H12         -2.5290     0.0890    -0.1680 h1         1 6SR       0.042200
     40 H13         -0.8120     5.2420    -1.7280 ha         1 6SR       0.127000
     41 H14         -1.8590     7.4480    -1.8750 ha         1 6SR       0.111000
     42 H15         -4.6120     3.3810    -2.4160 ha         1 6SR       0.118000
     43 H16         -6.6780     5.4870    -1.8090 hc         1 6SR       0.027200
     44 H17         -6.4360     7.7760    -3.5600 hc         1 6SR       0.044700
     45 H19          5.8020    -1.4910     1.6870 h2         1 6SR       0.017200
     46 H18         -6.3830     5.5080    -3.5630 hc         1 6SR       0.027200
     47 H20         -6.7370     7.7550    -1.7790 hc         1 6SR       0.044700
@<TRIPOS>BOND
     1     1     2 1   
     2     1    11 2   
     3     1    12 1   
     4     2     3 ar  
     5     2     7 ar  
     6     3     4 ar  
     7     3    28 1   
     8     4     5 ar  
     9     4     8 1   
    10     5     6 ar  
    11     5    10 1   
    12     6     7 ar  
    13     6    29 1   
    14     7    30 1   
    15     8     9 1   
    16     9    10 1   
    17     9    31 1   
    18     9    45 1   
    19    12    13 1   
    20    12    17 1   
    21    13    14 1   
    22    13    32 1   
    23    13    33 1   
    24    14    15 1   
    25    14    34 1   
    26    14    35 1   
    27    15    16 1   
    28    15    18 1   
    29    16    17 1   
    30    16    36 1   
    31    16    37 1   
    32    17    38 1   
    33    17    39 1   
    34    18    19 ar  
    35    18    23 ar  
    36    19    20 ar  
    37    19    40 1   
    38    20    21 ar  
    39    20    41 1   
    40    21    22 ar  
    41    21    26 1   
    42    22    23 ar  
    43    22    24 1   
    44    23    42 1   
    45    24    25 1   
    46    24    43 1   
    47    24    46 1   
    48    25    26 1   
    49    25    44 1   
    50    25    47 1   
    51    26    27 2   
@<TRIPOS>SUBSTRUCTURE
     1 6SR         1 TEMP              0 ****  ****    0 ROOT
