@<TRIPOS>MOLECULE
molecule
   62    66     1     0     0
SMALL
bcc


@<TRIPOS>ATOM
      1 C2           0.0000     0.0000     0.0000 ca         1 6SS       0.000400
      2 C3           1.3820     0.0000     0.0000 ca         1 6SS      -0.072000
      3 C4           2.0740     0.0000     1.1970 ca         1 6SS      -0.107000
      4 C5           1.3850     0.0020     2.3950 ca         1 6SS      -0.112000
      5 C6           0.0030     0.0010     2.3990 ca         1 6SS      -0.154300
      6 C7          -0.7480     0.0030     3.7050 c3         1 6SS       0.003600
      7 C12         -0.1390     1.4420     5.5950 c3         1 6SS       0.138500
      8 C17         -2.0360     3.4540     6.8110 ca         1 6SS      -0.070300
      9 C18         -3.1070     2.9740     7.5430 ca         1 6SS      -0.151000
     10 C19         -3.2310     3.2940     8.8820 ca         1 6SS      -0.087000
     11 C21         -1.2080     4.5740     8.7610 ca         1 6SS       0.150100
     12 C23         -0.4640     5.6490    10.7470 c3         1 6SS       0.133400
     13 C24          0.6770     6.5400    11.2420 c3         1 6SS      -0.092100
     14 C27         -3.0510     0.9540     3.3990 ca         1 6SS      -0.152300
     15 C30         -5.5350     0.8750     2.1960 ca         1 6SS       0.077400
     16 C32         -4.5800     1.7580     1.7350 ca         1 6SS      -0.141000
     17 C33         -3.3230     1.8050     2.3330 ca         1 6SS       0.078600
     18 C35         -1.1750     2.3330     2.8740 c          1 6SS       0.693500
     19 C37         -0.6920     0.0010     1.2010 ca         1 6SS       0.152900
     20 Cl1         -0.8690     0.0070    -1.5020 cl         1 6SS      -0.043400
     21 C9           0.2370     0.1190     4.8910 c3         1 6SS       0.046500
     22 N11          0.0660    -1.0150     5.8090 nz         1 6SS      -0.866600
     23 C14         -0.0090     1.2930     7.1120 c3         1 6SS      -0.109100
     24 N15         -1.5590     1.6820     5.2180 n3         1 6SS      -0.696600
     25 C20         -2.2840     4.0920     9.4930 ca         1 6SS      -0.210000
     26 O22         -0.2750     5.3600     9.3600 os         1 6SS      -0.328900
     27 C25         -1.0840     4.2480     7.4180 ca         1 6SS      -0.170000
     28 C26         -1.6370     1.2490     3.8090 c3         1 6SS       0.129500
     29 C28         -4.0070     0.0750     3.8580 ca         1 6SS      -0.054000
     30 C29         -5.2530     0.0330     3.2590 ca         1 6SS      -0.141000
     31 Cl2         -7.0990     0.8220     1.4440 cl         1 6SS      -0.064400
     32 N34         -2.2080     2.5970     2.0510 ns         1 6SS      -0.448100
     33 O36         -0.0850     2.8640     2.8630 o          1 6SS      -0.595500
     34 F38         -2.0430     0.0030     1.2040 f          1 6SS      -0.111900
     35 H1           1.9230    -0.0010    -0.9380 ha         1 6SS       0.171000
     36 H2           3.1580     0.0000     1.1960 ha         1 6SS       0.158000
     37 H3           1.9280     0.0020     3.3320 ha         1 6SS       0.117000
     38 H4          -1.3480    -0.8940     3.8030 hc         1 6SS       0.087700
     39 H5           0.4500     2.1840     5.0700 h1         1 6SS       0.106700
     40 H6          -0.9040     3.4080     5.0700 h1         1 6SS       0.069700
     41 H7          -2.6920     3.4560     4.6960 h1         1 6SS       0.069700
     42 H8          -3.8510     2.3480     7.0650 ha         1 6SS       0.139000
     43 H9          -4.0710     2.9170     9.4520 ha         1 6SS       0.141000
     44 H10         -0.4780     4.7300    11.3190 h1         1 6SS       0.038200
     45 H11         -1.4070     6.1670    10.8720 h1         1 6SS       0.038200
     46 H12          0.5340     6.7600    12.2930 hc         1 6SS       0.053033
     47 H13          0.6840     7.4650    10.6770 hc         1 6SS       0.053033
     48 H14          1.6210     6.0270    11.1050 hc         1 6SS       0.053033
     49 H15         -4.8070     2.4140     0.9030 ha         1 6SS       0.161000
     50 H16          1.2560     0.1660     4.5270 hx         1 6SS       0.137700
     51 H17          1.0200    -1.0220     5.5070 hn         1 6SS       0.478800
     52 H18         -0.4920    -1.7640     5.4490 hn         1 6SS       0.478800
     53 H20         -0.9070     0.8340     7.5080 hc         1 6SS       0.064700
     54 H21          0.8460     0.6690     7.3410 hc         1 6SS       0.064700
     55 H22          0.1250     2.2700     7.5600 hc         1 6SS       0.064700
     56 H24         -2.3810     4.3430    10.5420 ha         1 6SS       0.147000
     57 H25         -0.2450     4.6230     6.8440 ha         1 6SS       0.146000
     58 H26         -3.7840    -0.5830     4.6890 ha         1 6SS       0.131000
     59 H27         -6.0050    -0.6590     3.6180 ha         1 6SS       0.160000
     60 H28         -2.1800     3.2830     1.3230 hn         1 6SS       0.357500
     61 C16         -1.9050     3.1040     5.3510 c3         1 6SS       0.206100
     62 H113        -0.0720    -0.7600     6.7670 hn         1 6SS       0.478800
@<TRIPOS>BOND
     1    31    15 1
     2    15    16 ar
     3    15    30 ar
     4    16    17 ar
     5    20     1 1
     6    30    29 ar
     7    17    32 1
     8    17    14 ar
     9     1     2 ar
    10     1    19 ar
    11    29    14 ar
    12     2     3 ar
    13    34    19 1
    14    32    18 1
    15    14    28 1
    16    19     5 ar
    17     3     4 ar
    18    18    28 1
    19    18    33 2
    20     5     4 ar
    21     5     6 1
    22    28     6 1
    23    28    24 1
    24     6    21 1
    25     9    10 ar
    26     9     8 ar
    27    61    24 1
    28    61     8 1
    29    24     7 1
    30    10    25 ar
    31     8    27 ar
    32    21     7 1
    33    21    22 1
    34     7    23 1
    35    25    11 ar
    36    27    11 ar
    37    11    26 1
    38    26    12 1
    39    12    13 1
    40     2    35 1
    41     3    36 1
    42     4    37 1
    43     6    38 1
    44     7    39 1
    45    61    40 1
    46    61    41 1
    47     9    42 1
    48    10    43 1
    49    12    44 1
    50    12    45 1
    51    13    46 1
    52    13    47 1
    53    13    48 1
    54    16    49 1
    55    21    50 1
    56    22    51 1
    57    22    52 1
    58    23    53 1
    59    23    54 1
    60    23    55 1
    61    25    56 1
    62    27    57 1
    63    29    58 1
    64    30    59 1
    65    32    60 1
    66    62    22 1
@<TRIPOS>SUBSTRUCTURE
     1 6SS         1 TEMP              0 ****  ****    0 ROOT
