@<TRIPOS>MOLECULE
molecule
   64    70     1     0     0
SMALL
bcc


@<TRIPOS>ATOM
      1 C2           0.0000     0.0000     0.0000 c          1 6ST       0.880200
      2 C4           1.4770     0.0000     0.0000 ca         1 6ST      -0.096600
      3 C5           2.1780     0.0000     1.2080 ca         1 6ST      -0.097500
      4 C6           3.5570     0.0010     1.2010 ca         1 6ST      -0.157000
      5 C7           4.2460     0.0020     0.0010 ca         1 6ST      -0.142300
      6 C8           3.5580     0.0020    -1.1990 ca         1 6ST      -0.157000
      7 C12          6.2780    -1.4210    -0.2680 c3         1 6ST      -0.081400
      8 C15          7.0750     0.0610    -2.0040 c3         1 6ST       0.154500
      9 C18          8.4120     0.7940    -2.2540 c3         1 6ST       0.000600
     10 C21          9.7800     1.3610    -4.2720 ca         1 6ST      -0.100000
     11 C23          9.8790    -0.0990    -6.1680 ca         1 6ST      -0.100000
     12 C24          9.0330    -0.9870    -5.5300 ca         1 6ST      -0.005600
     13 C32         11.3290     1.3150    -0.5520 ca         1 6ST       0.059600
     14 C33         12.1390     2.2450     0.0950 ca         1 6ST      -0.169000
     15 C34         11.5760     3.2110     0.9060 ca         1 6ST       0.056400
     16 C36         10.2040     3.2630     1.0810 ca         1 6ST      -0.156000
     17 C37          9.3940     2.3420     0.4410 ca         1 6ST      -0.043000
     18 C38          9.9520     1.3770    -0.3690 ca         1 6ST      -0.103300
     19 O1          -0.6740    -0.0010    -1.1670 o          1 6ST      -0.835800
     20 O3          -0.6090    -0.0060     1.0520 o          1 6ST      -0.835800
     21 C9           2.1790    -0.0050    -1.2070 ca         1 6ST      -0.097500
     22 C10          5.7530     0.0030     0.0010 c3         1 6ST       0.223800
     23 C13          7.5070    -1.1900    -1.1790 c3         1 6ST       0.128500
     24 N17          6.2530     0.8670    -1.0820 n7         1 6ST      -0.811200
     25 C20          8.9300     0.4780    -3.6330 ca         1 6ST      -0.118300
     26 C22         10.2520     1.0750    -5.5390 ca         1 6ST      -0.140000
     27 C26          8.5540    -0.6980    -4.2610 ca         1 6ST       0.175900
     28 F27          7.7280    -1.5640    -3.6360 f          1 6ST      -0.117900
     29 C28          9.3730     0.2560    -1.1890 c3         1 6ST       0.143500
     30 C29         10.5660    -0.4080    -1.8280 c          1 6ST       0.701500
     31 O30         10.5470    -1.3630    -2.5750 o          1 6ST      -0.610500
     32 N31         11.6550     0.2610    -1.4080 ns         1 6ST      -0.459100
     33 N39          8.6290    -0.6910    -0.3470 n3         1 6ST      -0.651600
     34 C41         10.3830    -1.3230     1.2410 cx         1 6ST      -0.120700
     35 C42         11.2570    -2.3700     1.9340 cx         1 6ST      -0.147400
     36 C43         11.8960    -1.3300     1.0110 cx         1 6ST      -0.147400
     37 H1           1.6390    -0.0000     2.1480 ha         1 6ST       0.151500
     38 H2           4.1020     0.0010     2.1370 ha         1 6ST       0.104500
     39 H3           4.1030     0.0000    -2.1350 ha         1 6ST       0.104500
     40 H4           6.5770    -1.8960     0.6590 hc         1 6ST       0.059700
     41 H5           5.5290    -2.0100    -0.7820 hc         1 6ST       0.059700
     42 H6           6.5560    -0.1970    -2.9190 h1         1 6ST       0.073700
     43 H7           8.2800     1.8630    -2.1330 hc         1 6ST       0.094700
     44 H8          10.0730     2.2810    -3.7810 ha         1 6ST       0.141000
     45 H9          10.2500    -0.3230    -7.1610 ha         1 6ST       0.143000
     46 H10         13.2130     2.2170    -0.0460 ha         1 6ST       0.138000
     47 H11          9.7610     4.0690     1.6530 ha         1 6ST       0.149000
     48 H12          8.3200     2.3830     0.5730 ha         1 6ST       0.172000
     49 H13         10.1110    -2.1200    -0.7370 h1         1 6ST       0.056700
     50 H14          8.8770    -2.6230     0.4270 h1         1 6ST       0.056700
     51 H16          1.6410    -0.0050    -2.1470 ha         1 6ST       0.151500
     52 H17          6.1260     0.3580     0.9550 h1         1 6ST       0.070700
     53 H18          7.7620    -2.0450    -1.7930 h1         1 6ST       0.082700
     54 H19          5.4790     1.2590    -1.5810 hn         1 6ST       0.368800
     55 H21         10.9170     1.7690    -6.0390 ha         1 6ST       0.134000
     56 H22         12.5910     0.0310    -1.6800 hn         1 6ST       0.330500
     57 H24         10.0260    -0.5300     1.8870 hc         1 6ST       0.098700
     58 H25         11.4180    -2.2160     2.9940 hc         1 6ST       0.071200
     59 H26         11.1910    -3.3740     1.5330 hc         1 6ST       0.071200
     60 H27         12.2200    -1.7000     0.0460 hc         1 6ST       0.071200
     61 H28         12.4480    -0.5410     1.5070 hc         1 6ST       0.071200
     62 Cl2          8.5650    -2.4600    -6.3180 cl         1 6ST      -0.092400
     63 C40          9.4920    -1.7960     0.0910 c3         1 6ST       0.159800
     64 Cl3         12.5940     4.3660     1.7070 cl         1 6ST      -0.116400
@<TRIPOS>BOND
     1    20     1 1   
     2     1    19 1   
     3     1     2 1   
     4    21     2 ar  
     5    21     6 ar  
     6     2     3 ar  
     7     6     5 ar  
     8     3     4 ar  
     9     5     4 ar  
    10     5    22 1   
    11    62    12 1   
    12    22    24 1   
    13    22     7 1   
    14    28    27 1   
    15    24     8 1   
    16    12    27 ar  
    17    12    11 ar  
    18    27    25 ar  
    19    11    26 ar  
    20    25     9 1   
    21    25    10 ar  
    22     7    23 1   
    23     8     9 1   
    24     8    23 1   
    25     9    29 1   
    26    26    10 ar  
    27    17    16 ar  
    28    17    18 ar  
    29    16    15 ar  
    30    23    33 1   
    31    33    29 1   
    32    33    63 1   
    33    29    18 1   
    34    29    30 1   
    35    18    13 ar  
    36    15    64 1   
    37    15    14 ar  
    38    36    34 1   
    39    36    35 1   
    40    34    63 1   
    41    34    35 1   
    42    13    14 ar  
    43    13    32 1   
    44    30    31 2   
    45    30    32 1   
    46     3    37 1   
    47     4    38 1   
    48     6    39 1   
    49     7    40 1   
    50     7    41 1   
    51     8    42 1   
    52     9    43 1   
    53    10    44 1   
    54    11    45 1   
    55    14    46 1   
    56    16    47 1   
    57    17    48 1   
    58    63    49 1   
    59    63    50 1   
    60    21    51 1   
    61    22    52 1   
    62    23    53 1   
    63    24    54 1   
    64    26    55 1   
    65    32    56 1   
    66    34    57 1   
    67    35    58 1   
    68    35    59 1   
    69    36    60 1   
    70    36    61 1   
@<TRIPOS>SUBSTRUCTURE
     1 6ST         1 TEMP              0 ****  ****    0 ROOT
