@<TRIPOS>MOLECULE
6SU
   26    26     1     0     0
SMALL
bcc


@<TRIPOS>ATOM
      1 O3           0.0000     0.0000     0.0000 o          1 6SU      -0.584300
      2 C4           5.3890    -1.9560     0.0420 ca         1 6SU      -0.095000
      3 C5           4.0580    -1.6140     0.1860 ca         1 6SU      -0.122000
      4 C6           3.1740    -1.7810    -0.8740 ca         1 6SU       0.035600
      5 C7           3.6260    -2.2950    -2.0790 ca         1 6SU      -0.071000
      6 C8           2.0570     1.2720    -1.1260 c3         1 6SU       0.013700
      7 S            1.4210     0.0000     0.0000 s6         1 6SU       0.952900
      8 O2           2.1540     0.0000     1.2180 o          1 6SU      -0.584300
      9 N            1.8290    -1.4330    -0.7230 nu         1 6SU      -0.411500
     10 C3           5.8510    -2.4630    -1.1550 ca         1 6SU      -0.070000
     11 C2           4.9700    -2.6420    -2.2240 ca         1 6SU      -0.136600
     12 C1           5.4610    -3.1850    -3.5070 c          1 6SU       0.720700
     13 O1           4.6930    -3.3380    -4.4350 o          1 6SU      -0.591000
     14 O            6.7610    -3.5090    -3.6470 os         1 6SU      -0.415900
     15 C            7.1730    -4.0370    -4.9360 c3         1 6SU       0.271700
     16 H2           3.7030    -1.2140     1.1280 ha         1 6SU       0.172000
     17 H3           2.9380    -2.4290    -2.9050 ha         1 6SU       0.129000
     18 H4           2.0400     0.8960    -2.1420 h1         1 6SU       0.066033
     19 H5           1.4370     2.1570    -1.0590 h1         1 6SU       0.066033
     20 H6           3.0750     1.5220    -0.8510 h1         1 6SU       0.066033
     21 H7           1.1120    -2.0670    -1.0160 hn         1 6SU       0.353800
     22 H8           6.8950    -2.7310    -1.2630 ha         1 6SU       0.117000
     23 H9           8.2340    -4.2540    -4.9140 h1         1 6SU       0.001367
     24 H10          6.9700    -3.3040    -5.7080 h1         1 6SU       0.001367
     25 H11          6.6220    -4.9450    -5.1470 h1         1 6SU       0.001367
     26 H1           6.0740    -1.8210     0.8710 ha         1 6SU       0.110000
@<TRIPOS>BOND
     1     1     7 2   
     2     2     3 ar  
     3     2    10 ar  
     4     2    26 1   
     5     3     4 ar  
     6     3    16 1   
     7     4     5 ar  
     8     4     9 1   
     9     5    11 ar  
    10     5    17 1   
    11     6     7 1   
    12     6    18 1   
    13     6    19 1   
    14     6    20 1   
    15     7     8 2   
    16     7     9 1   
    17     9    21 1   
    18    10    11 ar  
    19    10    22 1   
    20    11    12 1   
    21    12    13 2   
    22    12    14 1   
    23    14    15 1   
    24    15    23 1   
    25    15    24 1   
    26    15    25 1   
@<TRIPOS>SUBSTRUCTURE
     1 6SU         1 TEMP              0 ****  ****    0 ROOT
