@<TRIPOS>MOLECULE
molecule
   26    26     1     0     0
SMALL
bcc


@<TRIPOS>ATOM
      1 O3           0.0000     0.0000     0.0000 o          1 6SU      -0.626800
      2 C4           5.3890    -1.9560     0.0420 ca         1 6SU      -0.128000
      3 C5           4.0580    -1.6140     0.1860 ca         1 6SU      -0.131000
      4 C6           3.1740    -1.7810    -0.8740 ca         1 6SU       0.114600
      5 C7           3.6260    -2.2950    -2.0790 ca         1 6SU      -0.088000
      6 C8           2.0570     1.2720    -1.1260 c3         1 6SU      -0.244300
      7 S            1.4210     0.0000     0.0000 s6         1 6SU       1.325900
      8 O2           2.1540     0.0000     1.2180 o          1 6SU      -0.626800
      9 N            1.8290    -1.4330    -0.7230 nu         1 6SU      -0.770500
     10 C3           5.8510    -2.4630    -1.1550 ca         1 6SU      -0.089000
     11 C2           4.9700    -2.6420    -2.2240 ca         1 6SU      -0.122600
     12 C1           5.4610    -3.1850    -3.5070 c          1 6SU       0.649700
     13 O1           4.6930    -3.3380    -4.4350 o          1 6SU      -0.549000
     14 O            6.7610    -3.5090    -3.6470 os         1 6SU      -0.427900
     15 C            7.1730    -4.0370    -4.9360 c3         1 6SU       0.140700
     16 H2           3.7030    -1.2140     1.1280 ha         1 6SU       0.189000
     17 H3           2.9380    -2.4290    -2.9050 ha         1 6SU       0.159000
     18 H4           2.0400     0.8960    -2.1420 h1         1 6SU       0.102367
     19 H5           1.4370     2.1570    -1.0590 h1         1 6SU       0.102367
     20 H6           3.0750     1.5220    -0.8510 h1         1 6SU       0.102367
     21 H7           1.1120    -2.0670    -1.0160 hn         1 6SU       0.469800
     22 H8           6.8950    -2.7310    -1.2630 ha         1 6SU       0.151000
     23 H9           8.2340    -4.2540    -4.9140 h1         1 6SU       0.050700
     24 H10          6.9700    -3.3040    -5.7080 h1         1 6SU       0.050700
     25 H11          6.6220    -4.9450    -5.1470 h1         1 6SU       0.050700
     26 H1           6.0740    -1.8210     0.8710 ha         1 6SU       0.144000
@<TRIPOS>BOND
     1    13    12 2
     2    15    14 1
     3    12    14 1
     4    12    11 1
     5    10    11 ar
     6    10     2 ar
     7    11     5 ar
     8     2     3 ar
     9     5     4 ar
    10     3     4 ar
    11     4     9 1
    12     6     7 1
    13     9     7 1
    14     7     1 2
    15     7     8 2
    16     2    26 1
    17     3    16 1
    18     5    17 1
    19     6    18 1
    20     6    19 1
    21     6    20 1
    22     9    21 1
    23    10    22 1
    24    15    23 1
    25    15    24 1
    26    15    25 1
@<TRIPOS>SUBSTRUCTURE
     1 6SU         1 TEMP              0 ****  ****    0 ROOT
