@<TRIPOS>MOLECULE
6SV
   38    39     1     0     0
SMALL
bcc


@<TRIPOS>ATOM
      1 C1           0.0000     0.0000     0.0000 c3         1 6SV      -0.028400
      2 C2           1.5290     0.0000     0.0000 c3         1 6SV      -0.017400
      3 C3           2.0400     0.0000     1.4420 c3         1 6SV      -0.040900
      4 C4           1.5300    -1.2500     2.1630 c3         1 6SV       0.034700
      5 C5           0.0010    -1.2510     2.1640 c3         1 6SV      -0.040900
      6 C6          -0.5100    -1.2500     0.7220 c3         1 6SV      -0.017400
      7 N1           2.0190    -1.2490     3.5460 ns         1 6SV      -0.216900
      8 C7           2.1480    -2.4120     4.2140 c          1 6SV       0.580100
      9 O1           1.8590    -3.4610     3.6710 o          1 6SV      -0.712100
     10 N2           2.5980    -2.4130     5.4850 ns         1 6SV      -0.216900
     11 C8           2.7390    -3.6770     6.2120 c3         1 6SV       0.061000
     12 C9           3.2630    -3.3980     7.6210 c3         1 6SV       0.158100
     13 C10          3.4140    -4.7220     8.3950 c3         1 6SV      -0.053400
     14 C11          4.9120    -4.7640     8.7850 c3         1 6SV      -0.059400
     15 C12          5.3150    -3.2710     8.6860 c3         1 6SV       0.212400
     16 O2           4.5650    -2.7950     7.5480 os         1 6SV      -0.408600
     17 H1          -0.3600     0.8840     0.5130 hc         1 6SV       0.012700
     18 H2          -0.3600    -0.0020    -1.0220 hc         1 6SV       0.012700
     19 H3           1.8890    -0.8860    -0.5090 hc         1 6SV       0.015450
     20 H4           1.8890     0.8860    -0.5090 hc         1 6SV       0.015450
     21 H5           1.6770     0.8840     1.9530 hc         1 6SV       0.019450
     22 H6           3.1240    -0.0030     1.4410 hc         1 6SV       0.019450
     23 H7           1.8900    -2.1330     1.6490 h1         1 6SV       0.060700
     24 H8          -0.3600    -0.3650     2.6740 hc         1 6SV       0.019450
     25 H9          -0.3580    -2.1370     2.6720 hc         1 6SV       0.019450
     26 H10         -1.5930    -1.2480     0.7230 hc         1 6SV       0.015450
     27 H11         -0.1460    -2.1330     0.2110 hc         1 6SV       0.015450
     28 H12          2.2960    -0.3900     3.9780 hn         1 6SV       0.165500
     29 H13          2.8210    -1.5480     5.9370 hn         1 6SV       0.173500
     30 H14          3.4350    -4.3190     5.6880 h1         1 6SV       0.031700
     31 H15          1.7740    -4.1650     6.2750 h1         1 6SV       0.031700
     32 H16          2.5830    -2.7410     8.1500 h1         1 6SV       0.014700
     33 H17          3.1660    -5.5620     7.7590 hc         1 6SV       0.026200
     34 H18          2.7930    -4.7130     9.2830 hc         1 6SV       0.026200
     35 H19          5.0350    -5.1290     9.7980 hc         1 6SV       0.025200
     36 H20          5.4760    -5.3630     8.0800 hc         1 6SV       0.025200
     37 H21          6.3790    -3.1770     8.5060 h1         1 6SV       0.009700
     38 H22          5.0240    -2.7390     9.5830 h1         1 6SV       0.009700
@<TRIPOS>BOND
     1     1     2 1   
     2     1     6 1   
     3     1    17 1   
     4     1    18 1   
     5     2     3 1   
     6     2    19 1   
     7     2    20 1   
     8     3     4 1   
     9     3    21 1   
    10     3    22 1   
    11     4     5 1   
    12     4     7 1   
    13     4    23 1   
    14     5     6 1   
    15     5    24 1   
    16     5    25 1   
    17     6    26 1   
    18     6    27 1   
    19     7     8 1   
    20     7    28 1   
    21     8     9 2   
    22     8    10 1   
    23    10    11 1   
    24    10    29 1   
    25    11    12 1   
    26    11    30 1   
    27    11    31 1   
    28    12    13 1   
    29    12    16 1   
    30    12    32 1   
    31    13    14 1   
    32    13    33 1   
    33    13    34 1   
    34    14    15 1   
    35    14    35 1   
    36    14    36 1   
    37    15    16 1   
    38    15    37 1   
    39    15    38 1   
@<TRIPOS>SUBSTRUCTURE
     1 6SV         1 TEMP              0 ****  ****    0 ROOT
