@<TRIPOS>MOLECULE
6SW
   33    36     1     0     0
SMALL
bcc


@<TRIPOS>ATOM
      1 P            0.0000     0.0000     0.0000 p5         1 6SW       1.236500
      2 C8           0.3210    -4.2910     7.8720 cc         1 6SW       0.328800
      3 C5           1.9760    -0.5910     6.0560 cc         1 6SW       0.244400
      4 C6           1.3820    -1.8020     7.7510 cd         1 6SW       0.186800
      5 O6          -0.5500    -0.6770    -1.3530 oh         1 6SW      -0.607400
      6 N1           1.9030    -0.6160     7.3550 nd         1 6SW      -0.521000
      7 C2           0.3060    -0.7270     2.4860 c3         1 6SW       0.195100
      8 N3           0.5480    -3.6210     9.0310 ns         1 6SW      -0.007400
      9 C4           1.4170    -2.1150     4.1250 c3         1 6SW       0.135800
     10 O4          -0.5070     1.3860     0.1130 o          1 6SW      -0.651300
     11 O5           1.6240     0.0000     0.0000 os         1 6SW      -0.464200
     12 C            2.3520     0.0000     1.2510 c3         1 6SW       0.302400
     13 O3          -0.4730    -0.8740     1.2940 os         1 6SW      -0.446200
     14 C3           0.0110    -1.7690     3.5730 c3         1 6SW       0.142100
     15 O2          -0.6070    -2.9270     3.0080 oh         1 6SW      -0.554800
     16 O            2.3760    -1.3390     3.3660 os         1 6SW      -0.380600
     17 C1           1.7610    -1.1080     2.1010 c3         1 6SW       0.060100
     18 N            1.5010    -1.7610     5.5440 na         1 6SW       0.283100
     19 C7           1.1160    -2.5450     6.5970 cd         1 6SW      -0.145200
     20 N2           0.5960    -3.7760     6.7080 nd         1 6SW      -0.523100
     21 C9           1.0770    -2.3770     9.0100 c          1 6SW       0.527000
     22 O1           1.2890    -1.7690    10.0440 o          1 6SW      -0.647500
     23 H2           2.3590     0.2360     5.4700 h5         1 6SW       0.036100
     24 H3          -1.1840    -0.1060    -1.7550 ho         1 6SW       0.458000
     25 H4           0.2530     0.2820     2.8770 h1         1 6SW       0.039700
     26 H5           0.3240    -4.0510     9.9060 hn         1 6SW       0.183500
     27 H6           1.6130    -3.1710     3.9910 h2         1 6SW       0.070700
     28 H7           2.2290     0.9540     1.7500 h1         1 6SW       0.015700
     29 H8           3.4020    -0.1960     1.0670 h1         1 6SW       0.015700
     30 H9          -0.6070    -1.3400     4.3520 h1         1 6SW       0.025700
     31 H10         -1.5060    -2.9730     3.2900 ho         1 6SW       0.404000
     32 H11          1.7530    -2.0300     1.5330 h1         1 6SW       0.049700
     33 H1          -0.1030    -5.2870     7.9180 h5         1 6SW       0.007800
@<TRIPOS>BOND
     1     1     5 1   
     2     1    10 2   
     3     1    11 1   
     4     1    13 1   
     5     2     8 1   
     6     2    20 2   
     7     2    33 1   
     8     3     6 2   
     9     3    18 1   
    10     3    23 1   
    11     4     6 1   
    12     4    19 2   
    13     4    21 1   
    14     5    24 1   
    15     7    13 1   
    16     7    14 1   
    17     7    17 1   
    18     7    25 1   
    19     8    21 1   
    20     8    26 1   
    21     9    14 1   
    22     9    16 1   
    23     9    18 1   
    24     9    27 1   
    25    11    12 1   
    26    12    17 1   
    27    12    28 1   
    28    12    29 1   
    29    14    15 1   
    30    14    30 1   
    31    15    31 1   
    32    16    17 1   
    33    17    32 1   
    34    18    19 1   
    35    19    20 1   
    36    21    22 2   
@<TRIPOS>SUBSTRUCTURE
     1 6SW         1 TEMP              0 ****  ****    0 ROOT
