@<TRIPOS>MOLECULE
molecule
   32    35     1     0     0
SMALL
bcc


@<TRIPOS>ATOM
      1 N1           0.0000     0.0000     0.0000 nb         1 6SX      -0.744000
      2 C2           1.3200     0.0000     0.0000 ca         1 6SX       0.695900
      3 C4           1.4200    -0.0010     2.2910 ca         1 6SX       0.440800
      4 C5           0.0110    -0.0010     2.3370 ca         1 6SX      -0.149200
      5 C6          -0.6880    -0.0010     1.1290 ca         1 6SX       0.520200
      6 P            5.8700     2.3490     7.3770 p5         1 6SX       1.570500
      7 O1P          7.4520     2.6450     7.3930 oh         1 6SX      -0.702400
      8 O2P          5.1580     3.3660     8.1840 o          1 6SX      -0.793300
      9 O3'          5.3140     2.3640     5.8430 os         1 6SX      -0.528200
     10 C3'          4.0970     1.6530     5.5950 c3         1 6SX       0.133100
     11 C4'          4.3530     0.1890     6.0440 c3         1 6SX       0.029100
     12 C5'          4.3950     0.1370     7.5590 c3         1 6SX       0.203400
     13 O5'          5.5780     0.8650     7.9690 os         1 6SX      -0.566200
     14 C2'          3.7690     1.4490     4.1110 c3         1 6SX       0.115100
     15 O2'          4.9470     1.5760     3.3110 oh         1 6SX      -0.569800
     16 C1'          3.2280    -0.0030     4.0620 c3         1 6SX       0.249800
     17 O4'          3.2980    -0.5300     5.4110 os         1 6SX      -0.390600
     18 N9           1.8400    -0.0020     3.5980 na         1 6SX      -0.268000
     19 N7          -0.3440    -0.0020     3.6450 nc         1 6SX      -0.581100
     20 C8           0.7270    -0.0040     4.3850 cd         1 6SX       0.452700
     21 N3           2.0260     0.0000     1.1120 nb         1 6SX      -0.746000
     22 H1           1.8420     0.0010    -0.9490 h5         1 6SX       0.067100
     23 H2          -1.7720    -0.0010     1.1160 h4         1 6SX       0.046100
     24 H3           7.6640     3.1830     8.1380 ho         1 6SX       0.480000
     25 H4           3.2630     2.0890     6.1310 h1         1 6SX       0.084700
     26 H5           5.3040    -0.1470     5.6470 h1         1 6SX       0.086700
     27 H6           4.4620    -0.8920     7.8910 h1         1 6SX       0.078200
     28 H7           3.5110     0.6080     7.9690 h1         1 6SX       0.078200
     29 H8           3.0060     2.1480     3.7920 h1         1 6SX       0.074700
     30 H9           4.8890     2.3580     2.7890 ho         1 6SX       0.424000
     31 H10          3.8430    -0.6020     3.4020 h2         1 6SX       0.118700
     32 H11          0.7330    -0.0060     5.4680 h5         1 6SX       0.090800
@<TRIPOS>BOND
     1     8     6 2   
     2    19    20 2   
     3    19     4 1   
     4    20    18 1   
     5     5     4 ar  
     6     5     1 ar  
     7     4     3 ar  
     8     6     7 1   
     9     6     9 1   
    10     6    13 1   
    11     9    10 1   
    12    10    14 1   
    13    10    11 1   
    14     1     2 ar  
    15    18     3 1   
    16    18    16 1   
    17    14    16 1   
    18    14    15 1   
    19     3    21 ar  
    20    13    12 1   
    21    12    11 1   
    22    16    17 1   
    23    11    17 1   
    24     2    21 ar  
    25     2    22 1   
    26     5    23 1   
    27     7    24 1   
    28    10    25 1   
    29    11    26 1   
    30    12    27 1   
    31    12    28 1   
    32    14    29 1   
    33    15    30 1   
    34    16    31 1   
    35    20    32 1   
@<TRIPOS>SUBSTRUCTURE
     1 6SX         1 TEMP              0 ****  ****    0 ROOT
