@<TRIPOS>MOLECULE
molecule
   31    33     1     0     0
SMALL
bcc


@<TRIPOS>ATOM
      1 N1           0.0000     0.0000     0.0000 ns         1 6SY      -0.559500
      2 C2           1.3850    -0.0010     2.3570 cc         1 6SY       0.035600
      3 C4           5.1710     0.5950    -0.3160 c3         1 6SY       0.035100
      4 C5           5.6730     1.3700    -1.5190 c3         1 6SY       0.204400
      5 C6           4.7650    -0.8340    -0.7690 c3         1 6SY       0.138100
      6 O2           6.9100     0.7430    -1.9330 os         1 6SY      -0.573200
      7 P            6.9810    -0.8650    -2.1420 p5         1 6SY       1.572500
      8 O7           1.9450     0.0000    -1.0570 o          1 6SY      -0.651500
      9 C8           1.3460     0.0000     0.0000 c          1 6SY       0.814500
     10 C           -0.6800     0.0060     1.1640 c          1 6SY       0.701700
     11 O           -1.8980     0.0050     1.1650 o          1 6SY      -0.608500
     12 N            2.0370     0.0000     1.1550 n          1 6SY      -0.372000
     13 C1           0.0350     0.0110     2.3860 cd         1 6SY      -0.313200
     14 C3           3.5020    -0.0130     1.1230 c3         1 6SY       0.312500
     15 C7           4.0040    -1.3250     0.4690 c3         1 6SY       0.117100
     16 O6           4.8800    -2.0260     1.3540 oh         1 6SY      -0.585800
     17 O1           3.9870     1.0820     0.3090 os         1 6SY      -0.372600
     18 O5           5.9850    -1.5310    -1.0340 os         1 6SY      -0.537200
     19 H1          -0.4980    -0.0040    -0.8680 hn         1 6SY       0.367500
     20 H2           1.9490     0.0010     3.2820 h4         1 6SY       0.168000
     21 H3           5.9620     0.5260     0.4210 h1         1 6SY       0.072700
     22 H4           4.9460     1.3190    -2.3200 h1         1 6SY       0.081700
     23 H5           5.8560     2.4020    -1.2430 h1         1 6SY       0.081700
     24 H6           4.1250    -0.8020    -1.6420 h1         1 6SY       0.113700
     25 H7           8.9450    -1.4020    -2.7340 ho         1 6SY       0.477000
     26 H8          -0.4940     0.0130     3.3310 ha         1 6SY       0.183000
     27 H9           3.8980     0.0720     2.1280 h2         1 6SY       0.098700
     28 H10          3.1670    -1.9480     0.1770 h1         1 6SY       0.074700
     29 H11          4.7080    -2.9520     1.2990 ho         1 6SY       0.423000
     30 O3           6.5300    -1.2170    -3.5070 o          1 6SY      -0.792300
     31 O4           8.4880    -1.3840    -1.9090 oh         1 6SY      -0.704400
@<TRIPOS>BOND
     1    11    10 2
     2    10     1 1
     3    10    13 1
     4     1     9 1
     5    13     2 2
     6     9     8 2
     7     9    12 1
     8     2    12 1
     9    12    14 1
    10    14    17 1
    11    14    15 1
    12    17     3 1
    13    15    16 1
    14    15     5 1
    15     3     5 1
    16     3     4 1
    17     5    18 1
    18     4     6 1
    19    18     7 1
    20    30     7 2
    21     6     7 1
    22     7    31 1
    23     1    19 1
    24     2    20 1
    25     3    21 1
    26     4    22 1
    27     4    23 1
    28     5    24 1
    29    31    25 1
    30    13    26 1
    31    14    27 1
    32    15    28 1
    33    16    29 1
@<TRIPOS>SUBSTRUCTURE
     1 6SY         1 TEMP              0 ****  ****    0 ROOT
