@<TRIPOS>MOLECULE
6SY
   31    33     1     0     0
SMALL
bcc


@<TRIPOS>ATOM
      1 N1           0.0000     0.0000     0.0000 ns         1 6SY      -0.128500
      2 C2           1.3850    -0.0010     2.3570 cc         1 6SY      -0.085400
      3 C4           5.1710     0.5950    -0.3160 c3         1 6SY       0.066100
      4 C5           5.6730     1.3700    -1.5190 c3         1 6SY       0.303400
      5 C6           4.7650    -0.8340    -0.7690 c3         1 6SY       0.194100
      6 O2           6.9100     0.7430    -1.9330 os         1 6SY      -0.483200
      7 P            6.9810    -0.8650    -2.1420 p5         1 6SY       1.234500
      8 O7           1.9450     0.0000    -1.0570 o          1 6SY      -0.699500
      9 C8           1.3460     0.0000     0.0000 c          1 6SY       0.596500
     10 C           -0.6800     0.0060     1.1640 c          1 6SY       0.611700
     11 O           -1.8980     0.0050     1.1650 o          1 6SY      -0.650500
     12 N            2.0370     0.0000     1.1550 n          1 6SY       0.032000
     13 C1           0.0350     0.0110     2.3860 cd         1 6SY      -0.289200
     14 C3           3.5020    -0.0130     1.1230 c3         1 6SY       0.222500
     15 C7           4.0040    -1.3250     0.4690 c3         1 6SY       0.142100
     16 O6           4.8800    -2.0260     1.3540 oh         1 6SY      -0.567800
     17 O1           3.9870     1.0820     0.3090 os         1 6SY      -0.369600
     18 O5           5.9850    -1.5310    -1.0340 os         1 6SY      -0.443200
     19 H1          -0.4980    -0.0040    -0.8680 hn         1 6SY       0.208500
     20 H2           1.9490     0.0010     3.2820 h4         1 6SY       0.134000
     21 H3           5.9620     0.5260     0.4210 h1         1 6SY       0.038700
     22 H4           4.9460     1.3190    -2.3200 h1         1 6SY       0.016700
     23 H5           5.8560     2.4020    -1.2430 h1         1 6SY       0.016700
     24 H6           4.1250    -0.8020    -1.6420 h1         1 6SY       0.068700
     25 H7           8.9450    -1.4020    -2.7340 ho         1 6SY       0.454000
     26 H8          -0.4940     0.0130     3.3310 ha         1 6SY       0.151000
     27 H9           3.8980     0.0720     2.1280 h2         1 6SY       0.051700
     28 H10          3.1670    -1.9480     0.1770 h1         1 6SY       0.026700
     29 H11          4.7080    -2.9520     1.2990 ho         1 6SY       0.403000
     30 O3           6.5300    -1.2170    -3.5070 o          1 6SY      -0.646300
     31 O4           8.4880    -1.3840    -1.9090 oh         1 6SY      -0.607400
@<TRIPOS>BOND
     1     1     9 1   
     2     1    10 1   
     3     1    19 1   
     4     2    12 1   
     5     2    13 2   
     6     2    20 1   
     7     3     4 1   
     8     3     5 1   
     9     3    17 1   
    10     3    21 1   
    11     4     6 1   
    12     4    22 1   
    13     4    23 1   
    14     5    15 1   
    15     5    18 1   
    16     5    24 1   
    17     6     7 1   
    18     7    18 1   
    19     7    30 2   
    20     7    31 1   
    21     8     9 2   
    22     9    12 1   
    23    10    11 2   
    24    10    13 1   
    25    12    14 1   
    26    13    26 1   
    27    14    15 1   
    28    14    17 1   
    29    14    27 1   
    30    15    16 1   
    31    15    28 1   
    32    16    29 1   
    33    25    31 1   
@<TRIPOS>SUBSTRUCTURE
     1 6SY         1 TEMP              0 ****  ****    0 ROOT
