@<TRIPOS>MOLECULE
molecule
   34    37     1     0     0
SMALL
bcc


@<TRIPOS>ATOM
      1 N1           0.0000     0.0000     0.0000 nb         1 6SZ      -0.796000
      2 N2          -2.0730    -0.0000     1.0780 nv         1 6SZ      -0.987500
      3 C6           1.3220     0.0000     0.0000 ca         1 6SZ       0.563200
      4 C2          -0.6890    -0.0010     1.1350 ca         1 6SZ       0.965900
      5 N3          -0.0970    -0.0020     2.3180 nb         1 6SZ      -0.824000
      6 C4           1.2260    -0.0020     2.4070 ca         1 6SZ       0.492800
      7 C5           1.9930     0.0000     1.2240 ca         1 6SZ      -0.206200
      8 N7           3.2970    -0.0000     1.5960 nc         1 6SZ      -0.569100
      9 C8           3.3780    -0.0000     2.8940 cd         1 6SZ       0.431700
     10 N9           2.1280    -0.0020     3.4410 na         1 6SZ      -0.274000
     11 C1'          1.8080    -0.0030     4.8710 c3         1 6SZ       0.252800
     12 O4'          2.9180     0.5410     5.6250 os         1 6SZ      -0.389600
     13 C2'          1.5910    -1.4570     5.3620 c3         1 6SZ       0.114100
     14 O2'          0.3000    -1.6010     5.9570 oh         1 6SZ      -0.572800
     15 C3'          2.6940    -1.6430     6.4110 c3         1 6SZ       0.131100
     16 O3'          2.2890    -2.3580     7.5820 os         1 6SZ      -0.530200
     17 PA           3.3140    -2.3240     8.8510 p5         1 6SZ       1.571500
     18 O2A          4.3880    -3.3250     8.6600 o          1 6SZ      -0.794300
     19 O1A          2.5140    -2.6290    10.2140 oh         1 6SZ      -0.703400
     20 C4'          2.9260    -0.1750     6.8580 c3         1 6SZ       0.030100
     21 C5'          4.2000    -0.1020     7.6760 c3         1 6SZ       0.203400
     22 O5'          3.9500    -0.8310     8.9020 os         1 6SZ      -0.567200
     23 H1          -2.5380     0.0160     0.1910 hn         1 6SZ       0.452800
     24 H2          -2.6090    -0.0110     1.9230 hn         1 6SZ       0.452800
     25 H3           1.8740     0.0010    -0.9320 h4         1 6SZ       0.044100
     26 H4           4.3020     0.0010     3.4580 h5         1 6SZ       0.086800
     27 H5           0.9160     0.5830     5.0550 h2         1 6SZ       0.116700
     28 H6           1.7230    -2.1570     4.5450 h1         1 6SZ       0.075700
     29 H7          -0.0980    -2.4000     5.6540 ho         1 6SZ       0.423000
     30 H8           3.5910    -2.0670     5.9740 h1         1 6SZ       0.084700
     31 H9           3.0400    -3.1800    10.7700 ho         1 6SZ       0.480000
     32 H10          2.0920     0.1510     7.4670 h1         1 6SZ       0.084700
     33 H11          5.0150    -0.5640     7.1320 h1         1 6SZ       0.078200
     34 H12          4.4360     0.9310     7.9020 h1         1 6SZ       0.078200
@<TRIPOS>BOND
     1     8     9 2   
     2     8     7 1   
     3    18    17 2   
     4     3     7 ar  
     5     3     1 ar  
     6     9    10 1   
     7     7     6 ar  
     8    17    19 1   
     9    17    16 1   
    10    17    22 1   
    11    16    15 1   
    12    15    13 1   
    13    15    20 1   
    14     1     4 ar  
    15    10     6 1   
    16    10    11 1   
    17     6     5 ar  
    18    13    11 1   
    19    13    14 1   
    20    22    21 1   
    21    11    12 1   
    22     4     5 ar  
    23     4     2 1   
    24    21    20 1   
    25    20    12 1   
    26     2    23 1   
    27     2    24 1   
    28     3    25 1   
    29     9    26 1   
    30    11    27 1   
    31    13    28 1   
    32    14    29 1   
    33    15    30 1   
    34    19    31 1   
    35    20    32 1   
    36    21    33 1   
    37    21    34 1   
@<TRIPOS>SUBSTRUCTURE
     1 6SZ         1 TEMP              0 ****  ****    0 ROOT
