@<TRIPOS>MOLECULE
6T0
   34    36     1     0     0
SMALL
bcc


@<TRIPOS>ATOM
      1 C9           0.0000     0.0000     0.0000 ca         1 6T0       0.583200
      2 C10          1.4130     0.0000     0.0000 ca         1 6T0      -0.076900
      3 C2           1.8900     0.0000     3.7100 ca         1 6T0      -0.121000
      4 C3           1.2980     0.0000     2.4440 ca         1 6T0      -0.099300
      5 C4          -0.1150    -0.0000     2.3280 ca         1 6T0       0.388600
      6 C5          -0.8910     0.0010     3.4960 ca         1 6T0      -0.134300
      7 C6          -0.2820     0.0010     4.7160 ca         1 6T0      -0.102000
      8 C7           1.1040     0.0010     4.8250 ca         1 6T0      -0.096000
      9 C8           5.8050     1.3970     3.5220 c3         1 6T0       0.003400
     10 C1           5.2080     2.3260     1.2810 c3         1 6T0       0.003400
     11 N8          -0.6910     0.0000     1.1170 nb         1 6T0      -0.606000
     12 C11          2.0920     0.0000     1.2230 ca         1 6T0      -0.261200
     13 N12          2.3560    -0.0000    -0.9720 nc         1 6T0      -0.476100
     14 C13          3.5400    -0.0000    -0.4310 cd         1 6T0       0.211700
     15 N14          3.4260    -0.0010     0.9260 na         1 6T0       0.361700
     16 N15         -0.6740     0.0070    -1.2090 nv         1 6T0      -0.654500
     17 C19          4.5290    -0.0010     1.8910 c3         1 6T0      -0.051700
     18 C20          4.7430     1.4190     2.4220 c3         1 6T0      -0.080700
     19 H1           2.9690     0.0010     3.8060 ha         1 6T0       0.110000
     20 H2          -1.9730     0.0000     3.4290 ha         1 6T0       0.118000
     21 H3          -0.8880     0.0010     5.6140 ha         1 6T0       0.103000
     22 H4           1.5640     0.0010     5.8060 ha         1 6T0       0.101000
     23 H5           6.7910     1.3930     3.0720 hc         1 6T0       0.009367
     24 H6           5.6800     0.5070     4.1270 hc         1 6T0       0.009367
     25 H7           5.6960     2.2760     4.1460 hc         1 6T0       0.009367
     26 H8           5.6130     3.2430     1.6920 hc         1 6T0       0.009367
     27 H9           5.9740     1.8190     0.7060 hc         1 6T0       0.009367
     28 H10          4.3680     2.5580     0.6380 hc         1 6T0       0.009367
     29 H11          4.4760    -0.0020    -0.9770 h5         1 6T0       0.032800
     30 H12         -0.9330    -0.8580    -1.6420 hn         1 6T0       0.278800
     31 H13         -0.9300     0.8760    -1.6350 hn         1 6T0       0.278800
     32 H14          4.2890    -0.6620     2.7140 h1         1 6T0       0.043200
     33 H15          5.4340    -0.3440     1.4040 h1         1 6T0       0.043200
     34 H16          3.8120     1.7970     2.8270 hc         1 6T0       0.047700
@<TRIPOS>BOND
     1     1     2 ar  
     2     1    11 ar  
     3     1    16 1   
     4     2    12 ar  
     5     2    13 1   
     6     3     4 ar  
     7     3     8 ar  
     8     3    19 1   
     9     4     5 ar  
    10     4    12 ar  
    11     5     6 ar  
    12     5    11 ar  
    13     6     7 ar  
    14     6    20 1   
    15     7     8 ar  
    16     7    21 1   
    17     8    22 1   
    18     9    18 1   
    19     9    23 1   
    20     9    24 1   
    21     9    25 1   
    22    10    18 1   
    23    10    26 1   
    24    10    27 1   
    25    10    28 1   
    26    12    15 1   
    27    13    14 2   
    28    14    15 1   
    29    14    29 1   
    30    15    17 1   
    31    16    30 1   
    32    16    31 1   
    33    17    18 1   
    34    17    32 1   
    35    17    33 1   
    36    18    34 1   
@<TRIPOS>SUBSTRUCTURE
     1 6T0         1 TEMP              0 ****  ****    0 ROOT
