@<TRIPOS>MOLECULE
6T1
   72    76     1     0     0
SMALL
bcc


@<TRIPOS>ATOM
      1 C1           0.0000     0.0000     0.0000 ca         1 6T1      -0.149000
      2 C2           1.3840     0.0000     0.0000 ca         1 6T1      -0.041000
      3 C3           2.0820     0.0000     1.1920 ca         1 6T1      -0.224000
      4 C7          -0.7430    -0.0010     3.6850 cp         1 6T1       0.444800
      5 C8          -2.1350    -0.0000     3.6770 ca         1 6T1      -0.158300
      6 C9          -2.8170    -0.0010     4.8950 ca         1 6T1      -0.119600
      7 C10         -2.0660    -0.0010     6.0750 ca         1 6T1      -0.219300
      8 C11         -0.6860    -0.0010     5.9960 ca         1 6T1       0.399200
      9 C12         -4.2990     0.0010     4.9370 c          1 6T1       0.593700
     10 C13         -6.4030     0.0010     6.1650 c3         1 6T1       0.050000
     11 C14         -6.8720     0.0020     7.6220 c3         1 6T1      -0.048400
     12 C15         -8.4020     0.0020     7.6660 c3         1 6T1       0.160800
     13 C16        -10.3080    -0.2370     9.1520 c3         1 6T1       0.149300
     14 C19         -8.6190     1.3250     9.6980 c3         1 6T1       0.149300
     15 C20          3.5030     0.1280     3.4910 cy         1 6T1       0.111100
     16 C21          4.2600    -1.1780     3.7910 cy         1 6T1       0.121300
     17 C22          4.1470     0.6790     4.7770 cy         1 6T1       0.121300
     18 C24          6.7100    -0.2250     6.4930 c3         1 6T1       0.028900
     19 C27          6.8060    -1.1110    10.1620 ca         1 6T1      -0.087000
     20 C30          8.0390    -1.8870     7.8100 ca         1 6T1      -0.087000
     21 C28          7.7620    -2.1100    10.1790 ca         1 6T1      -0.043600
     22 C26          6.4640    -0.5040     8.9680 ca         1 6T1      -0.090000
     23 C29          8.3790    -2.5000     9.0020 ca         1 6T1      -0.036600
     24 Cl1          9.5830    -3.7490     9.0240 cl         1 6T1      -0.003400
     25 C25          7.0790    -0.8920     7.7920 ca         1 6T1      -0.079300
     26 N4           5.2000    -0.3390     4.5690 nq         1 6T1      -0.543600
     27 C4           1.3970    -0.0000     2.3970 ca         1 6T1       0.185100
     28 C5          -0.0020    -0.0010     2.4010 cp         1 6T1      -0.201500
     29 C6          -0.6950     0.0000     1.1920 ca         1 6T1      -0.050000
     30 N1          -0.0730     0.0050     4.8300 nb         1 6T1      -0.546000
     31 O1          -4.9370     0.0010     3.9030 o          1 6T1      -0.646100
     32 N2          -4.9390     0.0000     6.1230 ns         1 6T1      -0.194900
     33 N3          -8.8510     0.0020     9.0640 n3         1 6T1      -0.545600
     34 C18         -9.5870     1.3140    10.9070 c3         1 6T1      -0.028400
     35 C17        -10.8280     0.5800    10.3500 c3         1 6T1      -0.028400
     36 H1          -0.5400     0.0000    -0.9390 ha         1 6T1       0.108000
     37 H2           1.9220    -0.0000    -0.9400 ha         1 6T1       0.100000
     38 H3           3.1650    -0.0000     1.1850 ha         1 6T1       0.126000
     39 H4          -2.6810    -0.0000     2.7410 ha         1 6T1       0.144000
     40 H5          -2.5600    -0.0030     7.0390 ha         1 6T1       0.110000
     41 H6          -0.1000     0.0020     6.9070 h4         1 6T1      -0.021900
     42 H7          -6.7780     0.8860     5.6650 h1         1 6T1       0.027700
     43 H8          -6.7790    -0.8830     5.6650 h1         1 6T1       0.027700
     44 H9          -6.4960     0.8860     8.1220 hc         1 6T1       0.024200
     45 H10         -6.4960    -0.8830     8.1220 hc         1 6T1       0.024200
     46 H11         -8.7770    -0.8830     7.1660 h1         1 6T1       0.012700
     47 H12         -8.7770     0.8860     7.1650 h1         1 6T1       0.012700
     48 H13        -10.7910     0.0960     8.2420 h1         1 6T1       0.012950
     49 H14        -10.4990    -1.2910     9.3150 h1         1 6T1       0.012950
     50 H15         -8.8740     2.1250     9.0140 h1         1 6T1       0.012950
     51 H16         -7.5920     1.4120    10.0330 h1         1 6T1       0.012950
     52 H17          3.8600     0.6250     2.5970 h1         1 6T1       0.055700
     53 H18          4.7120    -1.6200     2.9110 h1         1 6T1       0.036950
     54 H19          3.6950    -1.8670     4.4060 h1         1 6T1       0.036950
     55 H20          3.5500     0.4990     5.6620 h1         1 6T1       0.036950
     56 H21          4.5100     1.6940     4.6700 h1         1 6T1       0.036950
     57 H22          7.5680    -0.2230     5.8310 hc         1 6T1       0.027700
     58 H23          6.4010     0.7960     6.6860 hc         1 6T1       0.027700
     59 H24          6.3240    -0.8060    11.0830 ha         1 6T1       0.117000
     60 H25          8.5210    -2.1910     6.8890 ha         1 6T1       0.122000
     61 H26          5.7150     0.2790     8.9540 ha         1 6T1       0.111000
     62 H30         -1.7780     0.0000     1.1890 ha         1 6T1       0.116000
     63 H31         -4.4150    -0.0190     6.9760 hn         1 6T1       0.180500
     64 H33         -9.1570     0.7620    11.7350 hc         1 6T1       0.019450
     65 H34         -9.8410     2.3250    11.2020 hc         1 6T1       0.019450
     66 H35        -11.5700     1.2970    10.0200 hc         1 6T1       0.019450
     67 H36        -11.2420    -0.0810    11.1020 hc         1 6T1       0.019450
     68 O2           2.0820    -0.0000     3.5700 os         1 6T1      -0.247900
     69 C23          5.5600    -0.9900     5.8360 c3         1 6T1       0.146800
     70 Cl2          8.1870    -2.8780    11.6780 cl         1 6T1      -0.006400
     71 H27          4.7030    -0.9920     6.4980 h1         1 6T1       0.017700
     72 H28          5.8700    -2.0100     5.6430 h1         1 6T1       0.017700
@<TRIPOS>BOND
     1     1     2 ar  
     2     1    29 ar  
     3     1    36 1   
     4     2     3 ar  
     5     2    37 1   
     6     3    27 ar  
     7     3    38 1   
     8     4     5 ar  
     9     4    28 1   
    10     4    30 ar  
    11     5     6 ar  
    12     5    39 1   
    13     6     7 ar  
    14     6     9 1   
    15     7     8 ar  
    16     7    40 1   
    17     8    30 ar  
    18     8    41 1   
    19     9    31 2   
    20     9    32 1   
    21    10    11 1   
    22    10    32 1   
    23    10    42 1   
    24    10    43 1   
    25    11    12 1   
    26    11    44 1   
    27    11    45 1   
    28    12    33 1   
    29    12    46 1   
    30    12    47 1   
    31    13    33 1   
    32    13    35 1   
    33    13    48 1   
    34    13    49 1   
    35    14    33 1   
    36    14    34 1   
    37    14    50 1   
    38    14    51 1   
    39    15    16 1   
    40    15    17 1   
    41    15    52 1   
    42    15    68 1   
    43    16    26 1   
    44    16    53 1   
    45    16    54 1   
    46    17    26 1   
    47    17    55 1   
    48    17    56 1   
    49    18    25 1   
    50    18    57 1   
    51    18    58 1   
    52    18    69 1   
    53    19    21 ar  
    54    19    22 ar  
    55    19    59 1   
    56    20    23 ar  
    57    20    25 ar  
    58    20    60 1   
    59    21    23 ar  
    60    21    70 1   
    61    22    25 ar  
    62    22    61 1   
    63    23    24 1   
    64    26    69 1   
    65    27    28 ar  
    66    27    68 1   
    67    28    29 ar  
    68    29    62 1   
    69    32    63 1   
    70    34    35 1   
    71    34    64 1   
    72    34    65 1   
    73    35    66 1   
    74    35    67 1   
    75    69    71 1   
    76    69    72 1   
@<TRIPOS>SUBSTRUCTURE
     1 6T1         1 TEMP              0 ****  ****    0 ROOT
