@<TRIPOS>MOLECULE
molecule
   72    76     1     0     0
SMALL
bcc


@<TRIPOS>ATOM
      1 C1           0.0000     0.0000     0.0000 ca         1 6T1      -0.172000
      2 C2           1.3840     0.0000     0.0000 ca         1 6T1      -0.075000
      3 C3           2.0820     0.0000     1.1920 ca         1 6T1      -0.232000
      4 C7          -0.7430    -0.0010     3.6850 cp         1 6T1       0.488800
      5 C8          -2.1350    -0.0000     3.6770 ca         1 6T1      -0.190300
      6 C9          -2.8170    -0.0010     4.8950 ca         1 6T1      -0.106600
      7 C10         -2.0660    -0.0010     6.0750 ca         1 6T1      -0.246300
      8 C11         -0.6860    -0.0010     5.9960 ca         1 6T1       0.418200
      9 C12         -4.2990     0.0010     4.9370 c          1 6T1       0.671700
     10 C13         -6.4030     0.0010     6.1650 c3         1 6T1       0.111000
     11 C14         -6.8720     0.0020     7.6220 c3         1 6T1      -0.100400
     12 C15         -8.4020     0.0020     7.6660 c3         1 6T1       0.157800
     13 C16        -10.3080    -0.2370     9.1520 c3         1 6T1       0.144300
     14 C19         -8.6190     1.3250     9.6980 c3         1 6T1       0.144300
     15 C20          3.5030     0.1280     3.4910 cy         1 6T1       0.095100
     16 C21          4.2600    -1.1780     3.7910 cy         1 6T1       0.105800
     17 C22          4.1470     0.6790     4.7770 cy         1 6T1       0.105800
     18 C24          6.7100    -0.2250     6.4930 c3         1 6T1      -0.031100
     19 C27          6.8060    -1.1110    10.1620 ca         1 6T1      -0.111000
     20 C30          8.0390    -1.8870     7.8100 ca         1 6T1      -0.111000
     21 C28          7.7620    -2.1100    10.1790 ca         1 6T1       0.026400
     22 C26          6.4640    -0.5040     8.9680 ca         1 6T1      -0.119000
     23 C29          8.3790    -2.5000     9.0020 ca         1 6T1       0.032400
     24 Cl1          9.5830    -3.7490     9.0240 cl         1 6T1      -0.086400
     25 C25          7.0790    -0.8920     7.7920 ca         1 6T1      -0.075300
     26 N4           5.2000    -0.3390     4.5690 nq         1 6T1      -0.670600
     27 C4           1.3970    -0.0000     2.3970 ca         1 6T1       0.178100
     28 C5          -0.0020    -0.0010     2.4010 cp         1 6T1      -0.186500
     29 C6          -0.6950     0.0000     1.1920 ca         1 6T1      -0.074000
     30 N1          -0.0730     0.0050     4.8300 nb         1 6T1      -0.656000
     31 O1          -4.9370     0.0010     3.9030 o          1 6T1      -0.603100
     32 N2          -4.9390     0.0000     6.1230 ns         1 6T1      -0.580900
     33 N3          -8.8510     0.0020     9.0640 n3         1 6T1      -0.706600
     34 C18         -9.5870     1.3140    10.9070 c3         1 6T1      -0.088400
     35 C17        -10.8280     0.5800    10.3500 c3         1 6T1      -0.088400
     36 H1          -0.5400     0.0000    -0.9390 ha         1 6T1       0.135000
     37 H2           1.9220    -0.0000    -0.9400 ha         1 6T1       0.132000
     38 H3           3.1650    -0.0000     1.1850 ha         1 6T1       0.141000
     39 H4          -2.6810    -0.0000     2.7410 ha         1 6T1       0.165000
     40 H5          -2.5600    -0.0030     7.0390 ha         1 6T1       0.131000
     41 H6          -0.1000     0.0020     6.9070 h4         1 6T1       0.023100
     42 H7          -6.7780     0.8860     5.6650 h1         1 6T1       0.054700
     43 H8          -6.7790    -0.8830     5.6650 h1         1 6T1       0.054700
     44 H9          -6.4960     0.8860     8.1220 hc         1 6T1       0.053200
     45 H10         -6.4960    -0.8830     8.1220 hc         1 6T1       0.053200
     46 H11         -8.7770    -0.8830     7.1660 h1         1 6T1       0.038200
     47 H12         -8.7770     0.8860     7.1650 h1         1 6T1       0.038200
     48 H13        -10.7910     0.0960     8.2420 h1         1 6T1       0.041950
     49 H14        -10.4990    -1.2910     9.3150 h1         1 6T1       0.041950
     50 H15         -8.8740     2.1250     9.0140 h1         1 6T1       0.041950
     51 H16         -7.5920     1.4120    10.0330 h1         1 6T1       0.041950
     52 H17          3.8600     0.6250     2.5970 h1         1 6T1       0.081700
     53 H18          4.7120    -1.6200     2.9110 h1         1 6T1       0.069950
     54 H19          3.6950    -1.8670     4.4060 h1         1 6T1       0.069950
     55 H20          3.5500     0.4990     5.6620 h1         1 6T1       0.069950
     56 H21          4.5100     1.6940     4.6700 h1         1 6T1       0.069950
     57 H22          7.5680    -0.2230     5.8310 hc         1 6T1       0.060700
     58 H23          6.4010     0.7960     6.6860 hc         1 6T1       0.060700
     59 H24          6.3240    -0.8060    11.0830 ha         1 6T1       0.150000
     60 H25          8.5210    -2.1910     6.8890 ha         1 6T1       0.152000
     61 H26          5.7150     0.2790     8.9540 ha         1 6T1       0.140000
     62 H30         -1.7780     0.0000     1.1890 ha         1 6T1       0.143000
     63 H31         -4.4150    -0.0190     6.9760 hn         1 6T1       0.316500
     64 H33         -9.1570     0.7620    11.7350 hc         1 6T1       0.049450
     65 H34         -9.8410     2.3250    11.2020 hc         1 6T1       0.049450
     66 H35        -11.5700     1.2970    10.0200 hc         1 6T1       0.049450
     67 H36        -11.2420    -0.0810    11.1020 hc         1 6T1       0.049450
     68 O2           2.0820    -0.0000     3.5700 os         1 6T1      -0.274900
     69 C23          5.5600    -0.9900     5.8360 c3         1 6T1       0.133800
     70 Cl2          8.1870    -2.8780    11.6780 cl         1 6T1      -0.089400
     71 H27          4.7030    -0.9920     6.4980 h1         1 6T1       0.044700
     72 H28          5.8700    -2.0100     5.6430 h1         1 6T1       0.044700
@<TRIPOS>BOND
     1    16    15 1   
     2    16    26 1   
     3    15    17 1   
     4    15    68 1   
     5    17    26 1   
     6    26    69 1   
     7    30     8 ar  
     8    30     4 ar  
     9    18    69 1   
    10    18    25 1   
    11     8     7 ar  
    12    20    25 ar  
    13    20    23 ar  
    14    24    23 1   
    15     3    27 ar  
    16     3     2 ar  
    17    68    27 1   
    18    27    28 ar  
    19     2     1 ar  
    20    28     4 1   
    21    28    29 ar  
    22     1    29 ar  
    23     4     5 ar  
    24    25    22 ar  
    25     7     6 ar  
    26    23    21 ar  
    27     5     6 ar  
    28     6     9 1   
    29    22    19 ar  
    30    21    19 ar  
    31    21    70 1   
    32     9    31 2   
    33     9    32 1   
    34    32    10 1   
    35    10    11 1   
    36    11    12 1   
    37    12    33 1   
    38    33    13 1   
    39    33    14 1   
    40    13    35 1   
    41    14    34 1   
    42    35    34 1   
    43     1    36 1   
    44     2    37 1   
    45     3    38 1   
    46     5    39 1   
    47     7    40 1   
    48     8    41 1   
    49    10    42 1   
    50    10    43 1   
    51    11    44 1   
    52    11    45 1   
    53    12    46 1   
    54    12    47 1   
    55    13    48 1   
    56    13    49 1   
    57    14    50 1   
    58    14    51 1   
    59    15    52 1   
    60    16    53 1   
    61    16    54 1   
    62    17    55 1   
    63    17    56 1   
    64    18    57 1   
    65    18    58 1   
    66    19    59 1   
    67    20    60 1   
    68    22    61 1   
    69    69    71 1   
    70    69    72 1   
    71    29    62 1   
    72    32    63 1   
    73    34    64 1   
    74    34    65 1   
    75    35    66 1   
    76    35    67 1   
@<TRIPOS>SUBSTRUCTURE
     1 6T1         1 TEMP              0 ****  ****    0 ROOT
