@<TRIPOS>MOLECULE
molecule
   63    68     1     0     0
SMALL
bcc


@<TRIPOS>ATOM
      1 C1           0.0000     0.0000     0.0000 cc         1 6T2       0.451700
      2 C2           2.1920     0.0010    -1.1220 ca         1 6T2       0.563800
      3 C3           1.6140    -0.0000    -2.3990 ca         1 6T2      -0.265300
      4 C4           2.4100     0.0050    -3.5040 ca         1 6T2      -0.040000
      5 C5           3.3250    -0.0020     6.0160 c3         1 6T2       0.148400
      6 C6           3.8080     0.0120    -3.3200 ca         1 6T2      -0.176300
      7 C7           4.3290     0.0110    -2.0040 ca         1 6T2       0.477600
      8 C9           1.7730     0.0000     1.3230 ca         1 6T2      -0.108200
      9 C10          0.5960     0.0050     2.0920 ca         1 6T2       0.133400
     10 C11          5.7280     0.0180    -1.8200 ca         1 6T2       0.002300
     11 C12          0.6840     0.0060     3.4860 ca         1 6T2      -0.103000
     12 C13          1.9250     0.0030     4.0940 ca         1 6T2       0.131100
     13 C14          6.5580     0.0240    -2.9210 ca         1 6T2      -0.128000
     14 C15          6.0320     0.0240    -4.2090 ca         1 6T2      -0.134000
     15 C30          7.1090    -1.1660    -0.3150 c3         1 6T2       0.178800
     16 C40          7.5640    -1.2070     1.1460 c3         1 6T2      -0.101900
     17 C50          8.3500     0.0670     1.4660 c3         1 6T2       0.093500
     18 N80          8.7390     0.0600     2.8830 nz         1 6T2      -0.809600
     19 C60          7.4680     1.2870     1.1850 c3         1 6T2      -0.101900
     20 C70          7.0160     1.2550    -0.2770 c3         1 6T2       0.178800
     21 N4           6.2680     0.0180    -0.5340 nh         1 6T2      -0.596000
     22 N3           3.4970     0.0060    -0.9580 nb         1 6T2      -0.717000
     23 C16          4.6860     0.0180    -4.4170 ca         1 6T2      -0.072000
     24 N1           1.3630     0.0000     0.0000 na         1 6T2      -0.185100
     25 N2          -0.4470     0.0070     1.2210 nd         1 6T2      -0.575100
     26 C19          3.0110     0.0000     1.9490 ca         1 6T2      -0.074000
     27 C18          3.0850    -0.0010     3.3260 ca         1 6T2      -0.221000
     28 O1           2.0130     0.0030     5.4500 os         1 6T2      -0.315900
     29 C23          3.2220    -0.0030     7.5420 cy         1 6T2      -0.138000
     30 C27          2.2900     1.0850     8.0790 c3         1 6T2      -0.066100
     31 C24          4.5860    -0.0610     8.2570 cy         1 6T2       0.124400
     32 O2           3.9590    -1.0220     9.1300 oq         1 6T2      -0.400600
     33 C26          2.9670    -1.3950     8.1490 cy         1 6T2       0.124400
     34 H1          -0.6200    -0.0050    -0.8880 h5         1 6T2       0.083800
     35 H2           0.5360    -0.0040    -2.5060 ha         1 6T2       0.152000
     36 H3           1.9800     0.0050    -4.4980 ha         1 6T2       0.159000
     37 H4           3.8620     0.8800     5.6900 h1         1 6T2       0.025200
     38 H5           3.8550    -0.8890     5.6890 h1         1 6T2       0.025200
     39 H6          -0.2160     0.0090     4.0880 ha         1 6T2       0.167000
     40 H7           7.6320     0.0290    -2.7810 ha         1 6T2       0.130000
     41 H8           6.7030     0.0290    -5.0590 ha         1 6T2       0.146000
     42 H9           6.5380    -2.0590    -0.5390 h1         1 6T2       0.064700
     43 H10          7.9770    -1.1140    -0.9600 h1         1 6T2       0.064700
     44 H11          8.1980    -2.0710     1.3010 hc         1 6T2       0.072450
     45 H12          6.6960    -1.2680     1.7920 hc         1 6T2       0.072450
     46 H13          9.2350     0.1110     0.8430 hx         1 6T2       0.112700
     47 H14          9.2450     0.8980     3.0950 hn         1 6T2       0.453800
     48 H15          9.3200    -0.7340     3.0660 hn         1 6T2       0.453800
     49 H17          8.0350     2.1920     1.3680 hc         1 6T2       0.072450
     50 H18          6.5990     1.2610     1.8320 hc         1 6T2       0.072450
     51 H19          6.3790     2.1090    -0.4750 h1         1 6T2       0.064700
     52 H20          7.8850     1.2900    -0.9230 h1         1 6T2       0.064700
     53 H21          4.2930     0.0190    -5.4260 ha         1 6T2       0.149000
     54 H22          3.9180    -0.0030     1.3570 ha         1 6T2       0.155000
     55 H23          4.0530    -0.0030     3.8130 ha         1 6T2       0.113000
     56 H24          2.3670     1.1270     9.1590 hc         1 6T2       0.051700
     57 H25          1.2690     0.8560     7.7990 hc         1 6T2       0.051700
     58 H26          2.5730     2.0430     7.6590 hc         1 6T2       0.051700
     59 H27          4.8460     0.8640     8.7570 h1         1 6T2       0.060700
     60 H28          5.3710    -0.4880     7.6450 h1         1 6T2       0.060700
     61 H29          1.9730    -1.5040     8.5660 h1         1 6T2       0.060700
     62 H30          3.2860    -2.2060     7.5050 h1         1 6T2       0.060700
     63 H803         7.9190    -0.0000     3.4540 hn         1 6T2       0.453800
@<TRIPOS>BOND
     1    32    33 1   
     2    32    31 1   
     3    33    29 1   
     4    31    29 1   
     5    29     5 1   
     6    29    30 1   
     7     5    28 1   
     8    18    17 1   
     9    28    12 1   
    10    16    17 1   
    11    16    15 1   
    12    12    27 ar  
    13    12    11 ar  
    14    27    26 ar  
    15    17    19 1   
    16    11     9 ar  
    17    26     8 ar  
    18    15    21 1   
    19     9     8 ar  
    20     9    25 1   
    21    19    20 1   
    22     8    24 1   
    23    21    20 1   
    24    21    10 1   
    25    25     1 2   
    26    24     1 1   
    27    24     2 1   
    28    22     2 ar  
    29    22     7 ar  
    30    10     7 ar  
    31    10    13 ar  
    32     2     3 ar  
    33     7     6 ar  
    34    13    14 ar  
    35     3     4 ar  
    36     6     4 ar  
    37     6    23 ar  
    38    14    23 ar  
    39     1    34 1   
    40     3    35 1   
    41     4    36 1   
    42     5    37 1   
    43     5    38 1   
    44    11    39 1   
    45    13    40 1   
    46    14    41 1   
    47    15    42 1   
    48    15    43 1   
    49    16    44 1   
    50    16    45 1   
    51    17    46 1   
    52    18    47 1   
    53    18    48 1   
    54    19    49 1   
    55    19    50 1   
    56    20    51 1   
    57    20    52 1   
    58    23    53 1   
    59    26    54 1   
    60    27    55 1   
    61    30    56 1   
    62    30    57 1   
    63    30    58 1   
    64    31    59 1   
    65    31    60 1   
    66    33    61 1   
    67    33    62 1   
    68    63    18 1   
@<TRIPOS>SUBSTRUCTURE
     1 6T2         1 TEMP              0 ****  ****    0 ROOT
