@<TRIPOS>MOLECULE
6T2
   63    68     1     0     0
SMALL
bcc


@<TRIPOS>ATOM
      1 C1           0.0000     0.0000     0.0000 cc         1 6T2       0.258700
      2 C2           2.1920     0.0010    -1.1220 ca         1 6T2       0.348800
      3 C3           1.6140    -0.0000    -2.3990 ca         1 6T2      -0.237300
      4 C4           2.4100     0.0050    -3.5040 ca         1 6T2      -0.006000
      5 C5           3.3250    -0.0020     6.0160 c3         1 6T2       0.219400
      6 C6           3.8080     0.0120    -3.3200 ca         1 6T2      -0.169300
      7 C7           4.3290     0.0110    -2.0040 ca         1 6T2       0.424600
      8 C9           1.7730     0.0000     1.3230 ca         1 6T2      -0.286200
      9 C10          0.5960     0.0050     2.0920 ca         1 6T2       0.105400
     10 C11          5.7280     0.0180    -1.8200 ca         1 6T2      -0.083700
     11 C12          0.6840     0.0060     3.4860 ca         1 6T2      -0.078000
     12 C13          1.9250     0.0030     4.0940 ca         1 6T2       0.139100
     13 C14          6.5580     0.0240    -2.9210 ca         1 6T2      -0.097000
     14 C15          6.0320     0.0240    -4.2090 ca         1 6T2      -0.103000
     15 C30          7.1090    -1.1660    -0.3150 c3         1 6T2       0.156300
     16 C40          7.5640    -1.2070     1.1460 c3         1 6T2      -0.030400
     17 C50          8.3500     0.0670     1.4660 c3         1 6T2      -0.088500
     18 N80          8.7390     0.0600     2.8830 nz         1 6T2       0.077400
     19 C60          7.4680     1.2870     1.1850 c3         1 6T2      -0.030400
     20 C70          7.0160     1.2550    -0.2770 c3         1 6T2       0.156300
     21 N4           6.2680     0.0180    -0.5340 nh         1 6T2      -0.369000
     22 N3           3.4970     0.0060    -0.9580 nb         1 6T2      -0.593000
     23 C16          4.6860     0.0180    -4.4170 ca         1 6T2      -0.036000
     24 N1           1.3630     0.0000     0.0000 na         1 6T2       0.313900
     25 N2          -0.4470     0.0070     1.2210 nd         1 6T2      -0.489100
     26 C19          3.0110     0.0000     1.9490 ca         1 6T2      -0.040000
     27 C18          3.0850    -0.0010     3.3260 ca         1 6T2      -0.213000
     28 O1           2.0130     0.0030     5.4500 os         1 6T2      -0.291900
     29 C23          3.2220    -0.0030     7.5420 cy         1 6T2      -0.166000
     30 C27          2.2900     1.0850     8.0790 c3         1 6T2       0.034900
     31 C24          4.5860    -0.0610     8.2570 cy         1 6T2       0.209400
     32 O2           3.9590    -1.0220     9.1300 oq         1 6T2      -0.397600
     33 C26          2.9670    -1.3950     8.1490 cy         1 6T2       0.209400
     34 H1          -0.6200    -0.0050    -0.8880 h5         1 6T2       0.035800
     35 H2           0.5360    -0.0040    -2.5060 ha         1 6T2       0.132000
     36 H3           1.9800     0.0050    -4.4980 ha         1 6T2       0.123000
     37 H4           3.8620     0.8800     5.6900 h1         1 6T2      -0.007300
     38 H5           3.8550    -0.8890     5.6890 h1         1 6T2      -0.007300
     39 H6          -0.2160     0.0090     4.0880 ha         1 6T2       0.133000
     40 H7           7.6320     0.0290    -2.7810 ha         1 6T2       0.104000
     41 H8           6.7030     0.0290    -5.0590 ha         1 6T2       0.116000
     42 H9           6.5380    -2.0590    -0.5390 h1         1 6T2       0.034450
     43 H10          7.9770    -1.1140    -0.9600 h1         1 6T2       0.034450
     44 H11          8.1980    -2.0710     1.3010 hc         1 6T2       0.039700
     45 H12          6.6960    -1.2680     1.7920 hc         1 6T2       0.039700
     46 H13          9.2350     0.1110     0.8430 hx         1 6T2       0.091700
     47 H14          9.2450     0.8980     3.0950 hn         1 6T2       0.224133
     48 H15          9.3200    -0.7340     3.0660 hn         1 6T2       0.224133
     49 H17          8.0350     2.1920     1.3680 hc         1 6T2       0.039700
     50 H18          6.5990     1.2610     1.8320 hc         1 6T2       0.039700
     51 H19          6.3790     2.1090    -0.4750 h1         1 6T2       0.034450
     52 H20          7.8850     1.2900    -0.9230 h1         1 6T2       0.034450
     53 H21          4.2930     0.0190    -5.4260 ha         1 6T2       0.118000
     54 H22          3.9180    -0.0030     1.3570 ha         1 6T2       0.123000
     55 H23          4.0530    -0.0030     3.8130 ha         1 6T2       0.097000
     56 H24          2.3670     1.1270     9.1590 hc         1 6T2       0.016033
     57 H25          1.2690     0.8560     7.7990 hc         1 6T2       0.016033
     58 H26          2.5730     2.0430     7.6590 hc         1 6T2       0.016033
     59 H27          4.8460     0.8640     8.7570 h1         1 6T2       0.018450
     60 H28          5.3710    -0.4880     7.6450 h1         1 6T2       0.018450
     61 H29          1.9730    -1.5040     8.5660 h1         1 6T2       0.018450
     62 H30          3.2860    -2.2060     7.5050 h1         1 6T2       0.018450
     63 H803         7.9190    -0.0000     3.4540 hn         1 6T2       0.224133
@<TRIPOS>BOND
     1     1    24 1   
     2     1    25 2   
     3     1    34 1   
     4     2     3 ar  
     5     2    22 ar  
     6     2    24 1   
     7     3     4 ar  
     8     3    35 1   
     9     4     6 ar  
    10     4    36 1   
    11     5    28 1   
    12     5    29 1   
    13     5    37 1   
    14     5    38 1   
    15     6     7 ar  
    16     6    23 ar  
    17     7    10 ar  
    18     7    22 ar  
    19     8     9 ar  
    20     8    24 1   
    21     8    26 ar  
    22     9    11 ar  
    23     9    25 1   
    24    10    13 ar  
    25    10    21 1   
    26    11    12 ar  
    27    11    39 1   
    28    12    27 ar  
    29    12    28 1   
    30    13    14 ar  
    31    13    40 1   
    32    14    23 ar  
    33    14    41 1   
    34    15    16 1   
    35    15    21 1   
    36    15    42 1   
    37    15    43 1   
    38    16    17 1   
    39    16    44 1   
    40    16    45 1   
    41    17    18 1   
    42    17    19 1   
    43    17    46 1   
    44    18    47 1   
    45    18    48 1   
    46    18    63 1   
    47    19    20 1   
    48    19    49 1   
    49    19    50 1   
    50    20    21 1   
    51    20    51 1   
    52    20    52 1   
    53    23    53 1   
    54    26    27 ar  
    55    26    54 1   
    56    27    55 1   
    57    29    30 1   
    58    29    31 1   
    59    29    33 1   
    60    30    56 1   
    61    30    57 1   
    62    30    58 1   
    63    31    32 1   
    64    31    59 1   
    65    31    60 1   
    66    32    33 1   
    67    33    61 1   
    68    33    62 1   
@<TRIPOS>SUBSTRUCTURE
     1 6T2         1 TEMP              0 ****  ****    0 ROOT
