@<TRIPOS>MOLECULE
6T4
   18    18     1     0     0
SMALL
bcc


@<TRIPOS>ATOM
      1 C1           0.0000     0.0000     0.0000 c3         1 6T4      -0.061100
      2 C2           1.5070     0.0000     0.0000 c          1 6T4       0.540100
      3 C3           3.5700    -0.0010    -1.1680 cc         1 6T4       0.402300
      4 C4           5.6200    -0.0030    -2.0460 cd         1 6T4       0.349600
      5 C5           6.0000    -0.0040    -0.7680 cc         1 6T4      -0.166400
      6 C6           6.6030    -0.0040    -3.1890 c3         1 6T4      -0.015400
      7 O            2.1130     0.0000     1.0500 o          1 6T4      -0.601100
      8 N            2.1800    -0.0020    -1.1680 ns         1 6T4      -0.061400
      9 S            4.5500    -0.0070     0.2340 ss         1 6T4      -0.220300
     10 N1           4.3120    -0.0020    -2.2300 nd         1 6T4      -0.621000
     11 H4          -0.3610     0.0010     1.0210 hc         1 6T4       0.027367
     12 H3          -0.3610     0.8840    -0.5120 hc         1 6T4       0.027367
     13 H1          -0.3610    -0.8850    -0.5100 hc         1 6T4       0.027367
     14 H6           7.0220    -0.0060    -0.4080 h4         1 6T4       0.161000
     15 H7           7.2280     0.8790    -3.1280 hc         1 6T4       0.012033
     16 H9           6.0640    -0.0010    -4.1280 hc         1 6T4       0.012033
     17 H8           7.2230    -0.8900    -3.1310 hc         1 6T4       0.012033
     18 H5           1.6800    -0.0000    -2.0340 hn         1 6T4       0.177500
@<TRIPOS>BOND
     1     1     2 1   
     2     1    11 1   
     3     1    12 1   
     4     1    13 1   
     5     2     7 2   
     6     2     8 1   
     7     3     8 1   
     8     3     9 1   
     9     3    10 2   
    10     4     5 2   
    11     4     6 1   
    12     4    10 1   
    13     5     9 1   
    14     5    14 1   
    15     6    15 1   
    16     6    16 1   
    17     6    17 1   
    18     8    18 1   
@<TRIPOS>SUBSTRUCTURE
     1 6T4         1 TEMP              0 ****  ****    0 ROOT
