@<TRIPOS>MOLECULE
molecule
   34    35     1     0     0
SMALL
bcc


@<TRIPOS>ATOM
      1 O            0.0000     0.0000     0.0000 o          1 6T5      -0.616500
      2 C3           1.2200     0.0000     0.0000 c          1 6T5       0.798900
      3 N1           1.8880     0.0000     1.1670 ns         1 6T5      -0.270900
      4 N2           3.1740    -0.0000     1.2040 nc         1 6T5      -0.396300
      5 C1           3.8760     0.0010     0.1040 cd         1 6T5       0.173000
      6 C            5.3820     0.0020     0.1630 c3         1 6T5      -0.109400
      7 N            1.8830    -0.0040    -1.1600 nc         1 6T5      -0.717100
      8 C2           3.2110     0.0020    -1.1450 cd         1 6T5       0.638900
      9 N3           3.9260     0.0040    -2.3210 nu         1 6T5      -0.698600
     10 C4           3.2610    -0.1150    -3.5440 ca         1 6T5       0.125600
     11 C9           3.7540     0.5290    -4.6710 ca         1 6T5      -0.131500
     12 C8           3.0930     0.4090    -5.8790 ca         1 6T5      -0.108500
     13 C7           1.9420    -0.3520    -5.9650 ca         1 6T5      -0.085300
     14 C10          1.2240    -0.4810    -7.2840 c3         1 6T5      -0.030400
     15 C12          1.1720    -1.9540    -7.6950 c3         1 6T5      -0.085100
     16 C11         -0.2000     0.0600    -7.1450 c3         1 6T5      -0.085100
     17 C6           1.4490    -0.9960    -4.8460 ca         1 6T5      -0.108500
     18 C5           2.1070    -0.8840    -3.6370 ca         1 6T5      -0.131500
     19 H1           1.3740    -0.0010     2.0260 hn         1 6T5       0.373500
     20 H2           5.7630     0.8790    -0.3460 hc         1 6T5       0.055367
     21 H3           5.7620    -0.8900    -0.3210 hc         1 6T5       0.055367
     22 H4           5.7030     0.0170     1.1970 hc         1 6T5       0.055367
     23 H5           4.9240     0.0780    -2.3000 hn         1 6T5       0.459800
     24 H6           4.6560     1.1250    -4.6040 ha         1 6T5       0.146000
     25 H7           3.4780     0.9110    -6.7580 ha         1 6T5       0.136500
     26 H8           1.7530     0.0860    -8.0400 hc         1 6T5       0.052700
     27 H9           0.8370    -2.0300    -8.7230 hc         1 6T5       0.037200
     28 H10          0.4820    -2.4840    -7.0500 hc         1 6T5       0.037200
     29 H11          2.1590    -2.3890    -7.6040 hc         1 6T5       0.037200
     30 H12         -0.7860    -0.6190    -6.5360 hc         1 6T5       0.037200
     31 H13         -0.6520     0.1460    -8.1250 hc         1 6T5       0.037200
     32 H14         -0.1720     1.0350    -6.6730 hc         1 6T5       0.037200
     33 H15          0.5480    -1.5930    -4.9180 ha         1 6T5       0.136500
     34 H16          1.7200    -1.3890    -2.7600 ha         1 6T5       0.146000
@<TRIPOS>BOND
     1     1     2 2
     2     3     2 1
     3     3     4 1
     4     2     7 1
     5     4     5 2
     6     7     8 2
     7    18    17 ar
     8    18    10 ar
     9     5     8 1
    10     5     6 1
    11     8     9 1
    12    17    13 ar
    13    16    14 1
    14     9    10 1
    15    10    11 ar
    16    13    14 1
    17    13    12 ar
    18    14    15 1
    19    11    12 ar
    20     3    19 1
    21     6    20 1
    22     6    21 1
    23     6    22 1
    24     9    23 1
    25    11    24 1
    26    12    25 1
    27    14    26 1
    28    15    27 1
    29    15    28 1
    30    15    29 1
    31    16    30 1
    32    16    31 1
    33    16    32 1
    34    17    33 1
    35    18    34 1
@<TRIPOS>SUBSTRUCTURE
     1 6T5         1 TEMP              0 ****  ****    0 ROOT
