@<TRIPOS>MOLECULE
6T5
   34    35     1     0     0
SMALL
bcc


@<TRIPOS>ATOM
      1 O            0.0000     0.0000     0.0000 o          1 6T5      -0.666500
      2 C3           1.2200     0.0000     0.0000 c          1 6T5       0.672900
      3 N1           1.8880     0.0000     1.1670 ns         1 6T5       0.156100
      4 N2           3.1740    -0.0000     1.2040 nc         1 6T5      -0.457300
      5 C1           3.8760     0.0010     0.1040 cd         1 6T5       0.131000
      6 C            5.3820     0.0020     0.1630 c3         1 6T5       0.001600
      7 N            1.8830    -0.0040    -1.1600 nc         1 6T5      -0.654100
      8 C2           3.2110     0.0020    -1.1450 cd         1 6T5       0.444900
      9 N3           3.9260     0.0040    -2.3210 nu         1 6T5      -0.212600
     10 C4           3.2610    -0.1150    -3.5440 ca         1 6T5      -0.036400
     11 C9           3.7540     0.5290    -4.6710 ca         1 6T5      -0.103000
     12 C8           3.0930     0.4090    -5.8790 ca         1 6T5      -0.081000
     13 C7           1.9420    -0.3520    -5.9650 ca         1 6T5      -0.088300
     14 C10          1.2240    -0.4810    -7.2840 c3         1 6T5       0.003600
     15 C12          1.1720    -1.9540    -7.6950 c3         1 6T5       0.005400
     16 C11         -0.2000     0.0600    -7.1450 c3         1 6T5       0.005400
     17 C6           1.4490    -0.9960    -4.8460 ca         1 6T5      -0.081000
     18 C5           2.1070    -0.8840    -3.6370 ca         1 6T5      -0.103000
     19 H1           1.3740    -0.0010     2.0260 hn         1 6T5       0.204500
     20 H2           5.7630     0.8790    -0.3460 hc         1 6T5       0.014700
     21 H3           5.7620    -0.8900    -0.3210 hc         1 6T5       0.014700
     22 H4           5.7030     0.0170     1.1970 hc         1 6T5       0.014700
     23 H5           4.9240     0.0780    -2.3000 hn         1 6T5       0.289800
     24 H6           4.6560     1.1250    -4.6040 ha         1 6T5       0.122000
     25 H7           3.4780     0.9110    -6.7580 ha         1 6T5       0.110500
     26 H8           1.7530     0.0860    -8.0400 hc         1 6T5       0.025700
     27 H9           0.8370    -2.0300    -8.7230 hc         1 6T5       0.005533
     28 H10          0.4820    -2.4840    -7.0500 hc         1 6T5       0.005533
     29 H11          2.1590    -2.3890    -7.6040 hc         1 6T5       0.005533
     30 H12         -0.7860    -0.6190    -6.5360 hc         1 6T5       0.005533
     31 H13         -0.6520     0.1460    -8.1250 hc         1 6T5       0.005533
     32 H14         -0.1720     1.0350    -6.6730 hc         1 6T5       0.005533
     33 H15          0.5480    -1.5930    -4.9180 ha         1 6T5       0.110500
     34 H16          1.7200    -1.3890    -2.7600 ha         1 6T5       0.122000
@<TRIPOS>BOND
     1     1     2 2   
     2     2     3 1   
     3     2     7 1   
     4     3     4 1   
     5     3    19 1   
     6     4     5 2   
     7     5     6 1   
     8     5     8 1   
     9     6    20 1   
    10     6    21 1   
    11     6    22 1   
    12     7     8 2   
    13     8     9 1   
    14     9    10 1   
    15     9    23 1   
    16    10    11 ar  
    17    10    18 ar  
    18    11    12 ar  
    19    11    24 1   
    20    12    13 ar  
    21    12    25 1   
    22    13    14 1   
    23    13    17 ar  
    24    14    15 1   
    25    14    16 1   
    26    14    26 1   
    27    15    27 1   
    28    15    28 1   
    29    15    29 1   
    30    16    30 1   
    31    16    31 1   
    32    16    32 1   
    33    17    18 ar  
    34    17    33 1   
    35    18    34 1   
@<TRIPOS>SUBSTRUCTURE
     1 6T5         1 TEMP              0 ****  ****    0 ROOT
