@<TRIPOS>MOLECULE
molecule
   46    49     1     0     0
SMALL
bcc


@<TRIPOS>ATOM
      1 C1           1.5300     0.0000     0.0000 c3         1 6T6      -0.116100
      2 C2           0.0000     0.0000     0.0000 c3         1 6T6       0.620700
      3 N3          -0.5110     0.0000     1.3790 nu         1 6T6      -0.784000
      4 C4          -1.2650     1.1900     1.5260 ce         1 6T6       0.223800
      5 C5          -1.2550     1.8920     0.3810 c2         1 6T6      -0.050000
      6 N6          -0.5110     1.2430    -0.5940 nu         1 6T6      -0.840000
      7 N7          -1.9040     3.1080     0.1980 nz         1 6T6      -0.618400
      8 C8          -1.9630     1.5990     2.7580 ca         1 6T6      -0.117800
      9 C9          -2.7560     0.6810     3.4540 ca         1 6T6      -0.113000
     10 C10         -3.4050     1.0710     4.6060 ca         1 6T6      -0.111500
     11 C11         -3.2730     2.3670     5.0740 ca         1 6T6      -0.087000
     12 C12         -2.4910     3.2820     4.3900 ca         1 6T6      -0.111500
     13 C13         -1.8310     2.9050     3.2390 ca         1 6T6      -0.113000
     14 C14         -0.5220    -1.1970    -0.7520 ca         1 6T6      -0.132300
     15 C15         -0.7750    -2.3800    -0.0780 ca         1 6T6      -0.116000
     16 C16         -1.2550    -3.4820    -0.7620 ca         1 6T6      -0.109000
     17 C17         -1.4850    -3.4070    -2.1220 ca         1 6T6      -0.104000
     18 C18         -1.2320    -2.2190    -2.8040 cp         1 6T6      -0.013000
     19 C19         -0.7530    -1.1100    -2.1090 ca         1 6T6      -0.110000
     20 C20         -1.4770    -2.1340    -4.2650 cp         1 6T6      -0.176300
     21 C21         -1.9610    -3.2400    -4.9700 ca         1 6T6      -0.077000
     22 C22         -2.1730    -3.1090    -6.3320 ca         1 6T6      -0.242300
     23 C23         -1.9010    -1.9000    -6.9450 ca         1 6T6       0.432200
     24 N24         -1.4440    -0.8730    -6.2540 nb         1 6T6      -0.684000
     25 C25         -1.2320    -0.9490    -4.9560 ca         1 6T6       0.425200
     26 H11C         1.8910     0.8800     0.5180 hc         1 6T6       0.061033
     27 H12C         1.8910     0.0080    -1.0210 hc         1 6T6       0.061033
     28 H13C         1.8910    -0.8880     0.5040 hc         1 6T6       0.061033
     29 H3          -0.3560    -0.7020     2.0760 hn         1 6T6       0.496800
     30 H6          -0.3520     1.5630    -1.5290 hn         1 6T6       0.476800
     31 H71N        -2.8220     3.0600     0.5930 hn         1 6T6       0.452800
     32 H72N        -1.9720     3.3060    -0.7810 hn         1 6T6       0.452800
     33 H9          -2.8590    -0.3340     3.0900 ha         1 6T6       0.130500
     34 H13         -1.2190     3.6220     2.7050 ha         1 6T6       0.130500
     35 H10         -4.0190     0.3610     5.1470 ha         1 6T6       0.155000
     36 H11         -3.7880     2.6680     5.9790 ha         1 6T6       0.157000
     37 H12         -2.3910     4.2940     4.7630 ha         1 6T6       0.155000
     38 H15         -0.5960    -2.4420     0.9880 ha         1 6T6       0.123000
     39 H19         -0.5550    -0.1840    -2.6350 ha         1 6T6       0.123000
     40 H16         -1.4510    -4.4050    -0.2300 ha         1 6T6       0.146000
     41 H17         -1.8590    -4.2710    -2.6570 ha         1 6T6       0.147000
     42 H21         -2.1650    -4.1760    -4.4640 ha         1 6T6       0.144000
     43 H25         -0.8560    -0.0850    -4.4220 h4         1 6T6       0.010100
     44 H22         -2.5480    -3.9450    -6.9100 ha         1 6T6       0.151000
     45 H23         -2.0640    -1.7950    -8.0110 h4         1 6T6       0.034100
     46 H73         -1.3850     3.8350     0.6510 hn         1 6T6       0.452800
@<TRIPOS>BOND
     1     1     2 1   
     2     2     3 1   
     3     2     6 1   
     4     2    14 1   
     5     3     4 1   
     6     4     5 2   
     7     4     8 1   
     8     5     6 1   
     9     5     7 1   
    10     8     9 ar  
    11     8    13 ar  
    12     9    10 ar  
    13    10    11 ar  
    14    11    12 ar  
    15    12    13 ar  
    16    14    15 ar  
    17    14    19 ar  
    18    15    16 ar  
    19    16    17 ar  
    20    17    18 ar  
    21    18    19 ar  
    22    18    20 1   
    23    20    21 ar  
    24    20    25 ar  
    25    21    22 ar  
    26    22    23 ar  
    27    23    24 ar  
    28    24    25 ar  
    29     1    26 1   
    30     1    27 1   
    31     1    28 1   
    32     3    29 1   
    33     6    30 1   
    34     7    31 1   
    35     7    32 1   
    36     9    33 1   
    37    13    34 1   
    38    10    35 1   
    39    11    36 1   
    40    12    37 1   
    41    15    38 1   
    42    19    39 1   
    43    16    40 1   
    44    17    41 1   
    45    21    42 1   
    46    25    43 1   
    47    22    44 1   
    48    23    45 1   
    49    46     7 1   
@<TRIPOS>SUBSTRUCTURE
     1 6T6         1 TEMP              0 ****  ****    0 ROOT
