@<TRIPOS>MOLECULE
6T7
   28    29     1     0     0
SMALL
bcc


@<TRIPOS>ATOM
      1 C4           0.0000     0.0000     0.0000 ca         1 6T7       0.383200
      2 C5           2.1560     0.0010     3.6130 cc         1 6T7       0.313200
      3 C6           3.5140    -0.0080     5.9400 c          1 6T7       0.547700
      4 N1           1.5370     0.0020     4.7700 nd         1 6T7      -0.465300
      5 C7           4.2570    -0.0100     4.7390 cd         1 6T7      -0.229200
      6 C8           3.5700    -0.0050     3.5620 cc         1 6T7      -0.155600
      7 N2           2.1690    -0.0030     5.8870 n          1 6T7       0.285200
      8 C9           1.4060    -0.0020     7.1380 c3         1 6T7       0.018000
      9 C10          1.1460     1.4410     7.5750 c3         1 6T7      -0.150400
     10 C11          0.3610     1.4410     8.8620 c          1 6T7       0.987600
     11 O1           0.0420     0.3950     9.3760 o          1 6T7      -0.895800
     12 O2           0.0160     2.6040     9.4370 o          1 6T7      -0.895800
     13 O            4.0870    -0.0130     7.0180 o          1 6T7      -0.671500
     14 C2           1.3710     0.0010     2.3540 ca         1 6T7      -0.196200
     15 C1          -0.0260     0.0010     2.3870 ca         1 6T7      -0.050000
     16 C3           2.0160     0.0000     1.1180 ca         1 6T7       0.386200
     17 N            1.3200     0.0000     0.0000 nb         1 6T7      -0.591000
     18 C           -0.7110     0.0010     1.1850 ca         1 6T7      -0.221300
     19 H3          -0.5340     0.0000    -0.9430 h4         1 6T7      -0.027900
     20 H4           5.3400    -0.0140     4.7520 ha         1 6T7       0.131000
     21 H5           4.0920    -0.0060     2.6130 ha         1 6T7       0.112000
     22 H7           0.4610    -0.5090     6.9850 h1         1 6T7       0.060700
     23 H6           1.9720    -0.5160     7.9050 h1         1 6T7       0.060700
     24 H9           0.5810     1.9550     6.8070 hc         1 6T7       0.018700
     25 H8           2.0910     1.9470     7.7290 hc         1 6T7       0.018700
     26 H1          -0.5580     0.0010     3.3300 ha         1 6T7       0.135000
     27 H2           3.0980    -0.0000     1.0770 h4         1 6T7      -0.017900
     28 H           -1.7950     0.0010     1.1730 ha         1 6T7       0.110000
@<TRIPOS>BOND
     1     1    17 ar  
     2     1    18 ar  
     3     1    19 1   
     4     2     4 2   
     5     2     6 1   
     6     2    14 1   
     7     3     5 1   
     8     3     7 1   
     9     3    13 2   
    10     4     7 1   
    11     5     6 2   
    12     5    20 1   
    13     6    21 1   
    14     7     8 1   
    15     8     9 1   
    16     8    22 1   
    17     8    23 1   
    18     9    10 1   
    19     9    24 1   
    20     9    25 1   
    21    10    11 1   
    22    10    12 1   
    23    14    15 ar  
    24    14    16 ar  
    25    15    18 ar  
    26    15    26 1   
    27    16    17 ar  
    28    16    27 1   
    29    18    28 1   
@<TRIPOS>SUBSTRUCTURE
     1 6T7         1 TEMP              0 ****  ****    0 ROOT
