@<TRIPOS>MOLECULE
molecule
   28    29     1     0     0
SMALL
bcc


@<TRIPOS>ATOM
      1 C4           0.0000     0.0000     0.0000 ca         1 6T7       0.402200
      2 C5           2.1560     0.0010     3.6130 cc         1 6T7       0.342200
      3 C6           3.5140    -0.0080     5.9400 c          1 6T7       0.635700
      4 N1           1.5370     0.0020     4.7700 nd         1 6T7      -0.414300
      5 C7           4.2570    -0.0100     4.7390 cd         1 6T7      -0.238200
      6 C8           3.5700    -0.0050     3.5620 cc         1 6T7      -0.184600
      7 N2           2.1690    -0.0030     5.8870 n          1 6T7      -0.106800
      8 C9           1.4060    -0.0020     7.1380 c3         1 6T7       0.110000
      9 C10          1.1460     1.4410     7.5750 c3         1 6T7      -0.202400
     10 C11          0.3610     1.4410     8.8620 c          1 6T7       0.897600
     11 O1           0.0420     0.3950     9.3760 o          1 6T7      -0.846800
     12 O2           0.0160     2.6040     9.4370 o          1 6T7      -0.846800
     13 O            4.0870    -0.0130     7.0180 o          1 6T7      -0.630500
     14 C2           1.3710     0.0010     2.3540 ca         1 6T7      -0.201200
     15 C1          -0.0260     0.0010     2.3870 ca         1 6T7      -0.070000
     16 C3           2.0160     0.0000     1.1180 ca         1 6T7       0.413200
     17 N            1.3200     0.0000     0.0000 nb         1 6T7      -0.697000
     18 C           -0.7110     0.0010     1.1850 ca         1 6T7      -0.255300
     19 H3          -0.5340     0.0000    -0.9430 h4         1 6T7       0.014100
     20 H4           5.3400    -0.0140     4.7520 ha         1 6T7       0.158000
     21 H5           4.0920    -0.0060     2.6130 ha         1 6T7       0.132000
     22 H7           0.4610    -0.5090     6.9850 h1         1 6T7       0.087700
     23 H6           1.9720    -0.5160     7.9050 h1         1 6T7       0.087700
     24 H9           0.5810     1.9550     6.8070 hc         1 6T7       0.045200
     25 H8           2.0910     1.9470     7.7290 hc         1 6T7       0.045200
     26 H1          -0.5580     0.0010     3.3300 ha         1 6T7       0.166000
     27 H2           3.0980    -0.0000     1.0770 h4         1 6T7       0.020100
     28 H           -1.7950     0.0010     1.1730 ha         1 6T7       0.136000
@<TRIPOS>BOND
     1     1    18 ar  
     2     1    17 ar  
     3    18    15 ar  
     4    17    16 ar  
     5    15    14 ar  
     6    16    14 ar  
     7    14     2 1   
     8     2     4 2   
     9     2     6 1   
    10     4     7 1   
    11     6     5 2   
    12    11    10 1   
    13     9    10 1   
    14     9     8 1   
    15     7     8 1   
    16     7     3 1   
    17    10    12 1   
    18     5     3 1   
    19     3    13 2   
    20     1    19 1   
    21     5    20 1   
    22     6    21 1   
    23     8    22 1   
    24     8    23 1   
    25     9    24 1   
    26     9    25 1   
    27    15    26 1   
    28    16    27 1   
    29    18    28 1   
@<TRIPOS>SUBSTRUCTURE
     1 6T7         1 TEMP              0 ****  ****    0 ROOT
