@<TRIPOS>MOLECULE
6T9
   49    51     1     0     0
SMALL
bcc


@<TRIPOS>ATOM
      1 C1           0.0000     0.0000     0.0000 c3         1 6T9       0.186400
      2 C2           1.5360     0.0000     0.0000 c3         1 6T9       0.329600
      3 O3          -0.4410     1.1920     0.6590 os         1 6T9      -0.387400
      4 C4           0.1590     1.5150     1.8200 c2         1 6T9       0.366500
      5 N5           1.2730     1.0030     2.2170 n2         1 6T9      -0.448900
      6 C6           2.0120     0.0000     1.4560 c3         1 6T9       0.150500
      7 C7           3.4840     0.3200     1.5010 ca         1 6T9      -0.148300
      8 C8           3.9280     1.4310     2.1910 ca         1 6T9      -0.102000
      9 C9           5.2840     1.7260     2.2330 ca         1 6T9      -0.078400
     10 C10          6.1920     0.9020     1.5810 ca         1 6T9      -0.053000
     11 C11          5.7450    -0.2080     0.8920 ca         1 6T9      -0.089000
     12 C12          4.3910    -0.5030     0.8560 ca         1 6T9       0.115900
     13 F13          3.9570    -1.5920     0.1860 f          1 6T9      -0.120900
     14 N14         -0.4520     2.4430     2.6270 nz         1 6T9       0.207400
     15 C15          1.7740    -1.3810     2.0690 c3         1 6T9      -0.008100
     16 N16          5.7350     2.8510     2.9320 ns         1 6T9      -0.028100
     17 C17          6.9150     2.8130     3.5810 c          1 6T9       0.494600
     18 C18          7.3450     3.9650     4.4020 ca         1 6T9       0.241800
     19 O19          7.6270     1.8310     3.4920 o          1 6T9      -0.633100
     20 N20          6.5630     5.0340     4.4950 nb         1 6T9      -0.543000
     21 C21          6.9050     6.0790     5.2140 ca         1 6T9       0.282200
     22 C22          8.1110     6.1020     5.9100 ca         1 6T9       0.078800
     23 C23          8.9590     5.0000     5.8390 ca         1 6T9      -0.123000
     24 C24          8.5650     3.9160     5.0770 ca         1 6T9      -0.092300
     25 O25          8.4560     7.1870     6.6500 os         1 6T9      -0.288900
     26 F26          2.0080    -1.1440    -0.6520 f          1 6T9      -0.182300
     27 F27          2.0090     1.1440    -0.6530 f          1 6T9      -0.182300
     28 C28          7.5330     8.2770     6.6730 c3         1 6T9       0.200400
     29 C29          8.0890     9.3990     7.5510 c3         1 6T9      -0.000100
     30 H11C        -0.3650    -0.0090    -1.0200 h1         1 6T9       0.070200
     31 H12C        -0.3650    -0.8690     0.5340 h1         1 6T9       0.070200
     32 H141        -0.3530     3.3530     2.2230 hn         1 6T9       0.227800
     33 H142        -0.0230     2.4310     3.5320 hn         1 6T9       0.227800
     34 H151         2.5790    -1.6150     2.7550 hc         1 6T9       0.039367
     35 H152         1.7430    -2.1250     1.2820 hc         1 6T9       0.039367
     36 H153         0.8320    -1.3810     2.6040 hc         1 6T9       0.039367
     37 H8           3.2180     2.0730     2.6990 ha         1 6T9       0.103000
     38 H10          7.2500     1.1310     1.6110 ha         1 6T9       0.162000
     39 H16          5.1840     3.6870     2.9430 hn         1 6T9       0.185500
     40 H11          6.4530    -0.8530     0.3850 ha         1 6T9       0.136000
     41 H24          9.2000     3.0410     4.9990 ha         1 6T9       0.140000
     42 H21          6.2410     6.9330     5.2660 h4         1 6T9      -0.001900
     43 H23          9.9020     4.9900     6.3720 ha         1 6T9       0.135000
     44 H281         7.3850     8.6460     5.6660 h1         1 6T9       0.000700
     45 H282         6.5850     7.9390     7.0760 h1         1 6T9       0.000700
     46 H291         8.3960    10.2290     6.9260 hc         1 6T9       0.017367
     47 H292         8.9430     9.0330     8.1090 hc         1 6T9       0.017367
     48 H293         7.3230     9.7310     8.2420 hc         1 6T9       0.017367
     49 H143        -1.4240     2.2220     2.7130 hn         1 6T9       0.227800
@<TRIPOS>BOND
     1     1     2 1   
     2     1     3 1   
     3     1    30 1   
     4     1    31 1   
     5     2     6 1   
     6     2    26 1   
     7     2    27 1   
     8     3     4 1   
     9     4     5 2   
    10     4    14 1   
    11     5     6 1   
    12     6     7 1   
    13     6    15 1   
    14     7     8 ar  
    15     7    12 ar  
    16     8     9 ar  
    17     8    37 1   
    18     9    10 ar  
    19     9    16 1   
    20    10    11 ar  
    21    10    38 1   
    22    11    12 ar  
    23    11    40 1   
    24    12    13 1   
    25    14    32 1   
    26    14    33 1   
    27    14    49 1   
    28    15    34 1   
    29    15    35 1   
    30    15    36 1   
    31    16    17 1   
    32    16    39 1   
    33    17    18 1   
    34    17    19 2   
    35    18    20 ar  
    36    18    24 ar  
    37    20    21 ar  
    38    21    22 ar  
    39    21    42 1   
    40    22    23 ar  
    41    22    25 1   
    42    23    24 ar  
    43    23    43 1   
    44    24    41 1   
    45    25    28 1   
    46    28    29 1   
    47    28    44 1   
    48    28    45 1   
    49    29    46 1   
    50    29    47 1   
    51    29    48 1   
@<TRIPOS>SUBSTRUCTURE
     1 6T9         1 TEMP              0 ****  ****    0 ROOT
