@<TRIPOS>MOLECULE
molecule
   49    51     1     0     0
SMALL
bcc


@<TRIPOS>ATOM
      1 C1           0.0000     0.0000     0.0000 c3         1 6T9       0.111400
      2 C2           1.5360     0.0000     0.0000 c3         1 6T9       0.349600
      3 O3          -0.4410     1.1920     0.6590 os         1 6T9      -0.427400
      4 C4           0.1590     1.5150     1.8200 c2         1 6T9       0.636500
      5 N5           1.2730     1.0030     2.2170 n2         1 6T9      -0.602900
      6 C6           2.0120     0.0000     1.4560 c3         1 6T9       0.179500
      7 C7           3.4840     0.3200     1.5010 ca         1 6T9      -0.135300
      8 C8           3.9280     1.4310     2.1910 ca         1 6T9      -0.120000
      9 C9           5.2840     1.7260     2.2330 ca         1 6T9       0.057600
     10 C10          6.1920     0.9020     1.5810 ca         1 6T9      -0.079000
     11 C11          5.7450    -0.2080     0.8920 ca         1 6T9      -0.133000
     12 C12          4.3910    -0.5030     0.8560 ca         1 6T9       0.135900
     13 F13          3.9570    -1.5920     0.1860 f          1 6T9      -0.127900
     14 N14         -0.4520     2.4430     2.6270 nz         1 6T9      -0.728600
     15 C15          1.7740    -1.3810     2.0690 c3         1 6T9      -0.093100
     16 N16          5.7350     2.8510     2.9320 ns         1 6T9      -0.468100
     17 C17          6.9150     2.8130     3.5810 c          1 6T9       0.590600
     18 C18          7.3450     3.9650     4.4020 ca         1 6T9       0.309800
     19 O19          7.6270     1.8310     3.4920 o          1 6T9      -0.591100
     20 N20          6.5630     5.0340     4.4950 nb         1 6T9      -0.664000
     21 C21          6.9050     6.0790     5.2140 ca         1 6T9       0.321200
     22 C22          8.1110     6.1020     5.9100 ca         1 6T9       0.059800
     23 C23          8.9590     5.0000     5.8390 ca         1 6T9      -0.136000
     24 C24          8.5650     3.9160     5.0770 ca         1 6T9      -0.138300
     25 O25          8.4560     7.1870     6.6500 os         1 6T9      -0.312900
     26 F26          2.0080    -1.1440    -0.6520 f          1 6T9      -0.189300
     27 F27          2.0090     1.1440    -0.6530 f          1 6T9      -0.189300
     28 C28          7.5330     8.2770     6.6730 c3         1 6T9       0.130400
     29 C29          8.0890     9.3990     7.5510 c3         1 6T9      -0.094100
     30 H11C        -0.3650    -0.0090    -1.0200 h1         1 6T9       0.115700
     31 H12C        -0.3650    -0.8690     0.5340 h1         1 6T9       0.115700
     32 H141        -0.3530     3.3530     2.2230 hn         1 6T9       0.484133
     33 H142        -0.0230     2.4310     3.5320 hn         1 6T9       0.484133
     34 H151         2.5790    -1.6150     2.7550 hc         1 6T9       0.073367
     35 H152         1.7430    -2.1250     1.2820 hc         1 6T9       0.073367
     36 H153         0.8320    -1.3810     2.6040 hc         1 6T9       0.073367
     37 H8           3.2180     2.0730     2.6990 ha         1 6T9       0.131000
     38 H10          7.2500     1.1310     1.6110 ha         1 6T9       0.189000
     39 H16          5.1840     3.6870     2.9430 hn         1 6T9       0.343500
     40 H11          6.4530    -0.8530     0.3850 ha         1 6T9       0.169000
     41 H24          9.2000     3.0410     4.9990 ha         1 6T9       0.173000
     42 H21          6.2410     6.9330     5.2660 h4         1 6T9       0.030100
     43 H23          9.9020     4.9900     6.3720 ha         1 6T9       0.168000
     44 H281         7.3850     8.6460     5.6660 h1         1 6T9       0.036700
     45 H282         6.5850     7.9390     7.0760 h1         1 6T9       0.036700
     46 H291         8.3960    10.2290     6.9260 hc         1 6T9       0.056033
     47 H292         8.9430     9.0330     8.1090 hc         1 6T9       0.056033
     48 H293         7.3230     9.7310     8.2420 hc         1 6T9       0.056033
     49 H143        -1.4240     2.2220     2.7130 hn         1 6T9       0.484133
@<TRIPOS>BOND
     1     1     2 1   
     2     1     3 1   
     3     2     6 1   
     4     2    26 1   
     5     2    27 1   
     6     3     4 1   
     7     4     5 2   
     8     4    14 1   
     9     5     6 1   
    10     6     7 1   
    11     6    15 1   
    12     7     8 ar  
    13     7    12 ar  
    14     8     9 ar  
    15     9    10 ar  
    16     9    16 1   
    17    10    11 ar  
    18    11    12 ar  
    19    12    13 1   
    20    16    17 1   
    21    17    18 1   
    22    17    19 2   
    23    18    20 ar  
    24    18    24 ar  
    25    20    21 ar  
    26    21    22 ar  
    27    22    23 ar  
    28    22    25 1   
    29    23    24 ar  
    30    25    28 1   
    31    28    29 1   
    32     1    30 1   
    33     1    31 1   
    34    14    32 1   
    35    14    33 1   
    36    15    34 1   
    37    15    35 1   
    38    15    36 1   
    39     8    37 1   
    40    10    38 1   
    41    16    39 1   
    42    11    40 1   
    43    24    41 1   
    44    21    42 1   
    45    23    43 1   
    46    28    44 1   
    47    28    45 1   
    48    29    46 1   
    49    29    47 1   
    50    29    48 1   
    51    49    14 1   
@<TRIPOS>SUBSTRUCTURE
     1 6T9         1 TEMP              0 ****  ****    0 ROOT
