@<TRIPOS>MOLECULE
molecule
   58    61     1     0     0
SMALL
bcc


@<TRIPOS>ATOM
      1 C4           0.0000     0.0000     0.0000 c3         1 6TA      -0.106767
      2 C6           1.6530    -1.3380    -1.9720 c          1 6TA       0.758100
      3 C10          4.2080    -3.5790    -2.8350 c3         1 6TA      -0.064900
      4 C13          1.6790    -2.5910    -4.0700 c3         1 6TA       0.118000
      5 C15          4.8940    -4.4510    -5.2070 cx         1 6TA      -0.150700
      6 C21         10.5970    -6.6590    -6.0320 c3         1 6TA       0.172300
      7 C22         11.1360    -7.0670    -7.3760 ca         1 6TA      -0.069300
      8 C24         12.5660    -7.8630    -9.1120 ca         1 6TA       0.425200
      9 C26         10.4340    -7.1720    -9.6530 ca         1 6TA       0.443200
     10 C28          8.9290    -6.3100    -7.6620 c3         1 6TA       0.147300
     11 C1           2.0390     1.2490    -0.7210 c3         1 6TA      -0.106767
     12 C2           1.5300     0.0000     0.0000 c3         1 6TA       0.177800
     13 C3           2.0400     0.0000     1.4430 c3         1 6TA      -0.106767
     14 O5           2.0140    -1.1860    -0.6840 os         1 6TA      -0.436900
     15 O7           0.9510    -0.5030    -2.5090 o          1 6TA      -0.621000
     16 N8           2.0680    -2.4160    -2.6660 n          1 6TA      -0.478800
     17 C9           2.9150    -3.4310    -2.0250 c3         1 6TA       0.118000
     18 C11          3.8450    -3.8000    -4.3060 cx         1 6TA      -0.115000
     19 C12          2.9470    -2.7230    -4.9220 c3         1 6TA      -0.064900
     20 C14          3.6540    -5.2400    -4.7820 cx         1 6TA      -0.124400
     21 N17          7.1400    -5.3320    -5.6070 ns         1 6TA      -0.599900
     22 C18          8.3840    -5.7330    -5.2760 c          1 6TA       0.811100
     23 O19          8.7510    -5.6830    -4.1180 o          1 6TA      -0.651100
     24 N20          9.2210    -6.1880    -6.2290 n          1 6TA      -0.517800
     25 C23         12.3610    -7.5760    -7.7750 ca         1 6TA      -0.232300
     26 N25         11.6110    -7.6550    -9.9990 nb         1 6TA      -0.684000
     27 C27         10.1580    -6.8640    -8.3340 ca         1 6TA      -0.235600
     28 H1          -0.3610     0.3500    -0.9600 hc         1 6TA       0.049811
     29 H2          -0.3610    -1.0060     0.1770 hc         1 6TA       0.049811
     30 H3          -0.3610     0.6560     0.7830 hc         1 6TA       0.049811
     31 H4           4.7690    -4.4300    -2.4680 hc         1 6TA       0.056950
     32 H5           4.8000    -2.6770    -2.7390 hc         1 6TA       0.056950
     33 H6           1.1100    -1.7300    -4.3980 h1         1 6TA       0.062450
     34 H7           1.0800    -3.4890    -4.1710 h1         1 6TA       0.062450
     35 H8           4.8830    -4.1090    -6.2350 hc         1 6TA       0.083700
     36 H10         11.1970    -5.8460    -5.6410 h1         1 6TA       0.069700
     37 H11         13.5200    -8.2610    -9.4350 h4         1 6TA       0.029100
     38 H12          9.6750    -7.0150   -10.4100 h4         1 6TA       0.024100
     39 H13          8.0950    -6.9850    -7.8100 h1         1 6TA       0.050200
     40 H14          8.6960    -5.3340    -8.0720 h1         1 6TA       0.050200
     41 H15          1.4420     1.4240    -1.6070 hc         1 6TA       0.049811
     42 H16          1.9630     2.1040    -0.0590 hc         1 6TA       0.049811
     43 H17          3.0740     1.1040    -1.0060 hc         1 6TA       0.049811
     44 H18          1.6810    -0.8860     1.9530 hc         1 6TA       0.049811
     45 H19          3.1230     0.0030     1.4430 hc         1 6TA       0.049811
     46 H20          1.6770     0.8830     1.9550 hc         1 6TA       0.049811
     47 H21          3.1540    -3.1180    -1.0160 h1         1 6TA       0.062450
     48 H22          2.3910    -4.3780    -2.0030 h1         1 6TA       0.062450
     49 H23          2.6780    -3.0100    -5.9310 hc         1 6TA       0.056950
     50 H24          3.4740    -1.7760    -4.9360 hc         1 6TA       0.056950
     51 H25          3.8210    -6.0060    -4.0340 hc         1 6TA       0.078200
     52 H26          2.9040    -5.3830    -5.5500 hc         1 6TA       0.078200
     53 H29          6.8480    -5.3480    -6.5640 hn         1 6TA       0.310500
     54 H30         13.1470    -7.7480    -7.0490 ha         1 6TA       0.143000
     55 C16          6.2300    -4.8370    -4.5710 c3         1 6TA       0.166000
     56 H9          10.5870    -7.5210    -5.3770 h1         1 6TA       0.069700
     57 H27          6.6670    -3.9690    -4.0920 h1         1 6TA       0.057200
     58 H28          6.0680    -5.6130    -3.8320 h1         1 6TA       0.057200
@<TRIPOS>BOND
     1    26     8 ar
     2    26     9 ar
     3     8    25 ar
     4     9    27 ar
     5    25     7 ar
     6    27     7 ar
     7    27    10 1
     8     7     6 1
     9    10    24 1
    10     6    24 1
    11    24    22 1
    12    22    23 2
    13    22    21 1
    14    21    55 1
    15    20     5 1
    16    20    18 1
    17    55     5 1
    18     5    18 1
    19    18    19 1
    20    18     3 1
    21    19     4 1
    22     3    17 1
    23    17    16 1
    24     4    16 1
    25    16     2 1
    26     2    15 2
    27     2    14 1
    28    14    12 1
    29    12     1 1
    30    12    11 1
    31    12    13 1
    32     1    28 1
    33     1    29 1
    34     1    30 1
    35     3    31 1
    36     3    32 1
    37     4    33 1
    38     4    34 1
    39     5    35 1
    40     6    56 1
    41     6    36 1
    42     8    37 1
    43     9    38 1
    44    10    39 1
    45    10    40 1
    46    11    41 1
    47    11    42 1
    48    11    43 1
    49    13    44 1
    50    13    45 1
    51    13    46 1
    52    17    47 1
    53    17    48 1
    54    19    49 1
    55    19    50 1
    56    20    51 1
    57    20    52 1
    58    55    57 1
    59    55    58 1
    60    21    53 1
    61    25    54 1
@<TRIPOS>SUBSTRUCTURE
     1 6TA         1 TEMP              0 ****  ****    0 ROOT
