@<TRIPOS>MOLECULE
6TB
   80    84     1     0     0
SMALL
bcc


@<TRIPOS>ATOM
      1 C10          0.0000     0.0000     0.0000 ca         1 6TB       0.155100
      2 C13          1.3970     0.0000     0.0000 ca         1 6TB      -0.007400
      3 C15          2.4580    -1.2690    -1.8420 c3         1 6TB       0.202100
      4 C20          5.6160     2.2900    -4.4590 c3         1 6TB       0.109500
      5 C21          6.0110     0.9940    -3.7210 c3         1 6TB      -0.087900
      6 C22          7.1000     1.4470    -2.7170 c3         1 6TB      -0.019400
      7 C24          5.9780     3.4570    -3.5240 c3         1 6TB      -0.087900
      8 C26          4.8140     3.4600    -6.7820 c3         1 6TB      -0.032400
      9 C28          3.8220     4.7030    -4.8820 c          1 6TB       0.586500
     10 N02         -0.9530    -0.8440     8.8770 n3         1 6TB      -0.547600
     11 C03         -0.6340     0.5520     8.5520 c3         1 6TB       0.161800
     12 C04          0.1090     0.6100     7.2160 c3         1 6TB      -0.040900
     13 C05         -0.7720     0.0000     6.1210 c3         1 6TB       0.015700
     14 N06         -0.0440    -0.0000     4.8500 ns         1 6TB      -0.187900
     15 C07         -0.7210     0.0000     3.6850 c          1 6TB       0.593700
     16 C08          0.0130    -0.0000     2.4050 ca         1 6TB      -0.101600
     17 C09         -0.6900    -0.0000     1.1960 ca         1 6TB      -0.145000
     18 O11         -0.6790     0.0060    -1.1790 os         1 6TB      -0.301900
     19 C12         -2.1060     0.0130    -1.1030 c3         1 6TB       0.239700
     20 N14          2.0920     0.0000    -1.2080 nh         1 6TB      -0.282700
     21 C16          2.4390     1.2020    -1.8090 ca         1 6TB       0.716900
     22 N17          3.1000     1.1780    -2.9560 nb         1 6TB      -0.645000
     23 C18          3.4460     2.3120    -3.5570 ca         1 6TB       0.548200
     24 N19          4.1720     2.2930    -4.7320 nh         1 6TB      -0.466300
     25 C23          6.5820     2.8300    -2.2510 c3         1 6TB      -0.019400
     26 C25          3.8090     3.3930    -5.6290 c3         1 6TB       0.059500
     27 N29          3.4060     4.7370    -3.5970 n          1 6TB       0.027000
     28 C30          3.2900     6.0080    -2.8810 c3         1 6TB       0.056300
     29 O31          4.2070     5.7150    -5.4270 o          1 6TB      -0.657500
     30 C32          3.0860     3.5270    -2.9650 ca         1 6TB      -0.413000
     31 C33          2.4030     3.5070    -1.7620 ca         1 6TB       0.460200
     32 N34          2.0980     2.3360    -1.2170 nb         1 6TB      -0.666000
     33 C35          2.0940     0.0000     1.2030 ca         1 6TB      -0.055000
     34 C36          1.4100    -0.0000     2.3990 ca         1 6TB      -0.128000
     35 O37         -1.9370     0.0010     3.6890 o          1 6TB      -0.654100
     36 C38         -1.1300    -1.4380     6.5070 c3         1 6TB      -0.040900
     37 C39         -1.8370    -1.4350     7.8640 c3         1 6TB       0.161800
     38 H151         2.1620    -1.2510    -2.8840 h1         1 6TB       0.014367
     39 H153         1.9530    -2.0840    -1.3380 h1         1 6TB       0.014367
     40 H152         3.5300    -1.4110    -1.7740 h1         1 6TB       0.014367
     41 H201         6.1740     2.3720    -5.3850 h1         1 6TB       0.065700
     42 H211         6.4170     0.2710    -4.4180 hc         1 6TB       0.040200
     43 H212         5.1580     0.5850    -3.1940 hc         1 6TB       0.040200
     44 H222         8.0590     1.5450    -3.2120 hc         1 6TB       0.014200
     45 H221         7.1590     0.7590    -1.8820 hc         1 6TB       0.014200
     46 H242         6.7080     4.1000    -4.0010 hc         1 6TB       0.040200
     47 H241         5.0870     4.0190    -3.2730 hc         1 6TB       0.040200
     48 H262         5.8110     3.6050    -6.3850 hc         1 6TB       0.037700
     49 H261         4.5610     4.2870    -7.4350 hc         1 6TB       0.037700
     50 H011        -2.4750    -0.3970    10.2470 h1         1 6TB       0.000367
     51 H013        -0.8570    -0.5400    10.9480 h1         1 6TB       0.000367
     52 H012        -1.7350    -1.9910    10.4460 h1         1 6TB       0.000367
     53 H031        -1.5510     1.1240     8.4780 h1         1 6TB       0.010950
     54 H041         0.3290     1.6420     6.9690 hc         1 6TB       0.026200
     55 H042         1.0320     0.0460     7.2910 hc         1 6TB       0.026200
     56 H051        -1.6790     0.5840     6.0230 h1         1 6TB       0.057700
     57 H061         0.9570    -0.0010     4.8460 hn         1 6TB       0.180500
     58 H091        -1.7730    -0.0000     1.1970 ha         1 6TB       0.147000
     59 H122        -2.5210     0.0310    -2.1030 h1         1 6TB       0.002033
     60 H123        -2.4350     0.8900    -0.5600 h1         1 6TB       0.002033
     61 H121        -2.4440    -0.8780    -0.5880 h1         1 6TB       0.002033
     62 H232         5.8190     2.7100    -1.4900 hc         1 6TB       0.014200
     63 H231         7.4010     3.4360    -1.8830 hc         1 6TB       0.014200
     64 H251         2.8160     3.2180    -6.0240 h1         1 6TB       0.061700
     65 H273         5.2500     1.3670    -7.0060 hc         1 6TB       0.007367
     66 H271         5.2790     2.2820    -8.5200 hc         1 6TB       0.007367
     67 H272         3.7340     1.8790    -7.7600 hc         1 6TB       0.007367
     68 H302         2.2460     6.2930    -2.8180 h1         1 6TB       0.023700
     69 H303         3.8420     6.7740    -3.4130 h1         1 6TB       0.023700
     70 H301         3.6950     5.8990    -1.8820 h1         1 6TB       0.023700
     71 H331         2.1210     4.4320    -1.2730 h4         1 6TB      -0.007900
     72 H351         3.1770    -0.0000     1.2000 ha         1 6TB       0.111000
     73 H361         1.9550    -0.0000     3.3350 ha         1 6TB       0.106000
     74 H381        -1.7900    -1.8580     5.7570 hc         1 6TB       0.026200
     75 H382        -0.2260    -2.0300     6.5720 hc         1 6TB       0.026200
     76 H391        -2.7470    -0.8500     7.7950 h1         1 6TB       0.010950
     77 H392        -2.0770    -2.4530     8.1470 h1         1 6TB       0.010950
     78 C27          4.7660     2.1510    -7.5750 c3         1 6TB      -0.000100
     79 H032        -0.0050     0.9680     9.3310 h1         1 6TB       0.010950
     80 C01         -1.5440    -0.9500    10.2170 c3         1 6TB       0.188100
@<TRIPOS>BOND
     1     1     2 ar  
     2     1    17 ar  
     3     1    18 1   
     4     2    20 1   
     5     2    33 ar  
     6     3    20 1   
     7     3    38 1   
     8     3    39 1   
     9     3    40 1   
    10     4     5 1   
    11     4     7 1   
    12     4    24 1   
    13     4    41 1   
    14     5     6 1   
    15     5    42 1   
    16     5    43 1   
    17     6    25 1   
    18     6    44 1   
    19     6    45 1   
    20     7    25 1   
    21     7    46 1   
    22     7    47 1   
    23     8    26 1   
    24     8    48 1   
    25     8    49 1   
    26     8    78 1   
    27     9    26 1   
    28     9    27 1   
    29     9    29 2   
    30    10    11 1   
    31    10    37 1   
    32    10    80 1   
    33    11    12 1   
    34    11    53 1   
    35    11    79 1   
    36    12    13 1   
    37    12    54 1   
    38    12    55 1   
    39    13    14 1   
    40    13    36 1   
    41    13    56 1   
    42    14    15 1   
    43    14    57 1   
    44    15    16 1   
    45    15    35 2   
    46    16    17 ar  
    47    16    34 ar  
    48    17    58 1   
    49    18    19 1   
    50    19    59 1   
    51    19    60 1   
    52    19    61 1   
    53    20    21 1   
    54    21    22 ar  
    55    21    32 ar  
    56    22    23 ar  
    57    23    24 1   
    58    23    30 ar  
    59    24    26 1   
    60    25    62 1   
    61    25    63 1   
    62    26    64 1   
    63    27    28 1   
    64    27    30 1   
    65    28    68 1   
    66    28    69 1   
    67    28    70 1   
    68    30    31 ar  
    69    31    32 ar  
    70    31    71 1   
    71    33    34 ar  
    72    33    72 1   
    73    34    73 1   
    74    36    37 1   
    75    36    74 1   
    76    36    75 1   
    77    37    76 1   
    78    37    77 1   
    79    50    80 1   
    80    51    80 1   
    81    52    80 1   
    82    65    78 1   
    83    66    78 1   
    84    67    78 1   
@<TRIPOS>SUBSTRUCTURE
     1 6TB         1 TEMP              0 ****  ****    0 ROOT
