@<TRIPOS>MOLECULE
6TC
   73    77     1     0     0
SMALL
bcc


@<TRIPOS>ATOM
      1 C26          0.0000     0.0000     0.0000 ca         1 6TC      -0.075000
      2 C25          1.3830     0.0000     0.0000 ca         1 6TC      -0.096000
      3 C27         -0.6910    -0.0000     1.1970 ca         1 6TC      -0.096000
      4 C31          5.2380     0.8910     3.2080 ca         1 6TC      -0.117000
      5 C24          2.0730     0.0000     1.1980 ca         1 6TC      -0.077500
      6 C28         -0.0000     0.0010     2.3940 ca         1 6TC      -0.077500
      7 C7           3.4330     8.1950     6.8500 ca         1 6TC      -0.040500
      8 C39          3.3320     8.1680     4.4560 ca         1 6TC      -0.040500
      9 C6           2.5100     9.2220     6.8810 ca         1 6TC      -0.179500
     10 C40          2.4110     9.1990     4.4810 ca         1 6TC      -0.179500
     11 C32          6.2850     0.6420     2.3740 ca         1 6TC      -0.056000
     12 C36          6.1040     3.2810    -0.1830 cc         1 6TC      -0.089200
     13 C38          4.6130     2.8080     1.8760 ca         1 6TC       0.004000
     14 C19          1.8050     3.2290     5.2920 cc         1 6TC       0.405200
     15 C35          7.1710     2.7960    -0.7880 cd         1 6TC       0.006600
     16 C37          5.6910     2.5530     1.0060 ca         1 6TC      -0.077800
     17 C30          4.3870     1.9780     2.9640 ca         1 6TC      -0.068000
     18 C18          2.9900     3.4290     4.5510 cc         1 6TC      -0.422900
     19 C23          1.3820     0.0020     2.3950 ca         1 6TC      -0.152300
     20 C8           3.8460     7.6710     5.6390 ca         1 6TC      -0.194300
     21 C5           1.9960     9.7270     5.6950 ca         1 6TC       0.178100
     22 C33          6.5280     1.4630     1.2670 ca         1 6TC       0.027900
     23 C29          3.2500     2.2410     3.8680 cd         1 6TC      -0.107300
     24 C16          3.7960     4.6580     4.5050 c          1 6TC       0.664700
     25 C13          4.7720     3.1480     8.7100 c          1 6TC       0.313100
     26 C1           0.1600    12.6490     6.8720 c3         1 6TC      -0.016600
     27 C3          -0.3980    10.3200     7.5830 c3         1 6TC      -0.016600
     28 C22          2.1350    -0.0000     3.7000 c3         1 6TC       0.035600
     29 C9           4.8580     6.5540     5.6080 c3         1 6TC       0.124300
     30 C12          5.0730     3.7960     7.3840 c3         1 6TC      -0.121400
     31 C11          3.8710     4.6340     6.9410 c3         1 6TC       0.037000
     32 C2           0.6950    11.2220     7.0080 c3         1 6TC       0.161100
     33 N20          1.3840     2.0140     5.0720 nd         1 6TC      -0.643800
     34 N21          2.2620     1.3740     4.1910 na         1 6TC       0.528400
     35 N14          5.6920     2.3570     9.2980 nz         1 6TC       0.194600
     36 N10          4.1640     5.2640     5.6520 n          1 6TC      -0.161800
     37 O17          4.1310     5.1280     3.4350 o          1 6TC      -0.618100
     38 O15          3.7020     3.3360     9.2490 o          1 6TC      -0.389100
     39 O4           1.0870    10.7360     5.7220 os         1 6TC      -0.292900
     40 S34          7.7880     1.3800     0.0410 ss         1 6TC      -0.201500
     41 H1          -0.5420    -0.0000    -0.9380 ha         1 6TC       0.110000
     42 H2           1.9250    -0.0010    -0.9380 ha         1 6TC       0.111000
     43 H3          -1.7750    -0.0000     1.1970 ha         1 6TC       0.111000
     44 H4           5.0590     0.2450     4.0590 ha         1 6TC       0.095000
     45 H5           3.1560     0.0000     1.1990 ha         1 6TC       0.110500
     46 H6          -0.5420     0.0010     3.3320 ha         1 6TC       0.110500
     47 H7           3.8360     7.8010     7.7750 ha         1 6TC       0.106000
     48 H8           3.6570     7.7550     3.5090 ha         1 6TC       0.106000
     49 H9           2.1870     9.6320     7.8300 ha         1 6TC       0.128500
     50 H10          2.0100     9.5900     3.5530 ha         1 6TC       0.128500
     51 H11          6.9370    -0.2010     2.5710 ha         1 6TC       0.113000
     52 H12          5.5780     4.1570    -0.5440 ha         1 6TC       0.131000
     53 H13          3.9540     3.6470     1.6900 ha         1 6TC       0.146000
     54 H14          1.3270     3.9600     5.9330 h4         1 6TC       0.014100
     55 H15          7.6110     3.2190    -1.6830 h4         1 6TC       0.156000
     56 H16         -0.7410    12.6410     6.2710 hc         1 6TC       0.015700
     57 H17         -0.0640    13.0460     7.8550 hc         1 6TC       0.015700
     58 H18          0.9070    13.2710     6.3940 hc         1 6TC       0.015700
     59 H19          0.0290     9.6720     8.3390 hc         1 6TC       0.015700
     60 H20         -0.8230     9.7170     6.7900 hc         1 6TC       0.015700
     61 H21         -1.1740    10.9310     8.0280 hc         1 6TC       0.015700
     62 H22          3.1210    -0.4220     3.5470 h1         1 6TC       0.045200
     63 H23          1.5950    -0.5950     4.4270 h1         1 6TC       0.045200
     64 H24          5.5160     6.6390     6.4650 h1         1 6TC       0.031700
     65 H25          5.4410     6.6200     4.6970 h1         1 6TC       0.031700
     66 H26          5.9420     4.4350     7.4840 hc         1 6TC       0.063700
     67 H27          5.2710     3.0300     6.6440 hc         1 6TC       0.063700
     68 H28          3.0020     3.9950     6.8410 h1         1 6TC       0.058700
     69 H29          3.6730     5.4000     7.6810 h1         1 6TC       0.058700
     70 H30          1.5520    11.2190     7.6720 h1         1 6TC       0.017700
     71 H31          5.8020     1.5180     8.7630 hn         1 6TC       0.247800
     72 H32          6.5680     2.8400     9.3430 hn         1 6TC       0.247800
     73 H143         5.3910     2.1250    10.2230 hn         1 6TC       0.247800
@<TRIPOS>BOND
     1     1     2 ar  
     2     1     3 ar  
     3     1    41 1   
     4     2     5 ar  
     5     2    42 1   
     6     3     6 ar  
     7     3    43 1   
     8     4    11 ar  
     9     4    17 ar  
    10     4    44 1   
    11     5    19 ar  
    12     5    45 1   
    13     6    19 ar  
    14     6    46 1   
    15     7     9 ar  
    16     7    20 ar  
    17     7    47 1   
    18     8    10 ar  
    19     8    20 ar  
    20     8    48 1   
    21     9    21 ar  
    22     9    49 1   
    23    10    21 ar  
    24    10    50 1   
    25    11    22 ar  
    26    11    51 1   
    27    12    15 2   
    28    12    16 1   
    29    12    52 1   
    30    13    16 ar  
    31    13    17 ar  
    32    13    53 1   
    33    14    18 1   
    34    14    33 2   
    35    14    54 1   
    36    15    40 1   
    37    15    55 1   
    38    16    22 ar  
    39    17    23 1   
    40    18    23 2   
    41    18    24 1   
    42    19    28 1   
    43    20    29 1   
    44    21    39 1   
    45    22    40 1   
    46    23    34 1   
    47    24    36 1   
    48    24    37 2   
    49    25    30 1   
    50    25    35 1   
    51    25    38 2   
    52    26    32 1   
    53    26    56 1   
    54    26    57 1   
    55    26    58 1   
    56    27    32 1   
    57    27    59 1   
    58    27    60 1   
    59    27    61 1   
    60    28    34 1   
    61    28    62 1   
    62    28    63 1   
    63    29    36 1   
    64    29    64 1   
    65    29    65 1   
    66    30    31 1   
    67    30    66 1   
    68    30    67 1   
    69    31    36 1   
    70    31    68 1   
    71    31    69 1   
    72    32    39 1   
    73    32    70 1   
    74    33    34 1   
    75    35    71 1   
    76    35    72 1   
    77    35    73 1   
@<TRIPOS>SUBSTRUCTURE
     1 6TC         1 TEMP              0 ****  ****    0 ROOT
