@<TRIPOS>MOLECULE
molecule
   41    45     1     0     0
SMALL
bcc


@<TRIPOS>ATOM
      1 CAA          0.0000     0.0000     0.0000 c3         1 6TD       0.128700
      2 OAP          1.4290     0.0000     0.0000 os         1 6TD      -0.327900
      3 CAS          2.0460     0.0000     1.2110 ca         1 6TD       0.147100
      4 CAG          3.4310     0.0000     1.2850 ca         1 6TD      -0.191000
      5 CAE          4.0560     0.0010     2.5170 ca         1 6TD      -0.074500
      6 CAF          1.2920     0.0060     2.3750 ca         1 6TD      -0.191000
      7 CAD          1.9210     0.0060     3.6050 ca         1 6TD      -0.074500
      8 CAR          3.3020    -0.0000     3.6750 ca         1 6TD      -0.138300
      9 CAK          3.9860    -0.0000     5.0190 c3         1 6TD      -0.039400
     10 CAU          4.2150     1.4200     5.4660 cc         1 6TD       0.429800
     11 NAL          5.2670     2.1470     5.2120 nd         1 6TD      -0.328000
     12 NAM          5.1380     3.3110     5.7420 nd         1 6TD      -0.297000
     13 CAY          3.9890     3.3820     6.3640 cc         1 6TD       0.393900
     14 SAQ          2.9000     4.3870     7.3270 ss         1 6TD      -0.254800
     15 NAZ          3.3460     2.1870     6.2130 na         1 6TD      -0.123200
     16 NAN          2.1000     2.1080     6.8170 nc         1 6TD      -0.468800
     17 CAV          1.6520     3.1360     7.4740 cd         1 6TD       0.566200
     18 CAT          0.3630     3.2470     8.1800 cd         1 6TD      -0.125900
     19 CAJ         -0.5740     2.2680     8.2570 cc         1 6TD      -0.108200
     20 CAW         -1.6840     2.8020     9.0440 ca         1 6TD      -0.122800
     21 CAH         -2.9130     2.2830     9.4600 ca         1 6TD      -0.066000
     22 CAB         -3.7570     3.0530    10.2090 ca         1 6TD      -0.157000
     23 CAC         -3.4040     4.3500    10.5590 ca         1 6TD      -0.091000
     24 CAI         -2.1980     4.8820    10.1590 ca         1 6TD      -0.149000
     25 CAX         -1.3210     4.1170     9.3980 ca         1 6TD      -0.013200
     26 NAO         -0.0750     4.3590     8.8670 na         1 6TD      -0.176400
     27 H1          -0.3610     0.8860     0.5070 h1         1 6TD       0.041367
     28 H2          -0.3610    -0.8830     0.5140 h1         1 6TD       0.041367
     29 H3          -0.3610    -0.0040    -1.0210 h1         1 6TD       0.041367
     30 H4           4.0230     0.0010     0.3770 ha         1 6TD       0.141500
     31 H5           5.1380    -0.0020     2.5750 ha         1 6TD       0.140000
     32 H6           0.2100     0.0110     2.3200 ha         1 6TD       0.141500
     33 H7           1.3330     0.0080     4.5150 ha         1 6TD       0.140000
     34 H8           4.9380    -0.5120     4.9390 hc         1 6TD       0.075200
     35 H9           3.3620    -0.5100     5.7420 hc         1 6TD       0.075200
     36 H10         -0.4380     1.2320     7.9690 ha         1 6TD       0.171000
     37 H11         -3.1950     1.2720     9.1910 ha         1 6TD       0.135000
     38 H12         -4.7090     2.6490    10.5310 ha         1 6TD       0.135000
     39 H13         -4.0830     4.9480    11.1530 ha         1 6TD       0.136000
     40 H14         -1.9320     5.8950    10.4380 ha         1 6TD       0.131000
     41 H15          0.4360     5.2130     8.9640 hn         1 6TD       0.303700
@<TRIPOS>BOND
     1     9    10 1   
     2     9     8 1   
     3    11    10 2   
     4    11    12 1   
     5    10    15 1   
     6     8     5 ar  
     7     8     7 ar  
     8    12    13 2   
     9     5     4 ar  
    10    15    13 1   
    11    15    16 1   
    12     7     6 ar  
    13    13    14 1   
    14    16    17 2   
    15     4     3 ar  
    16     6     3 ar  
    17    17    14 1   
    18    17    18 1   
    19     3     2 1   
    20    19    18 2   
    21    19    20 1   
    22    18    26 1   
    23     2     1 1   
    24    20    21 ar  
    25    20    25 ar  
    26    26    25 1   
    27    21    22 ar  
    28    25    24 ar  
    29    22    23 ar  
    30    24    23 ar  
    31     1    27 1   
    32     1    28 1   
    33     1    29 1   
    34     4    30 1   
    35     5    31 1   
    36     6    32 1   
    37     7    33 1   
    38     9    34 1   
    39     9    35 1   
    40    19    36 1   
    41    21    37 1   
    42    22    38 1   
    43    23    39 1   
    44    24    40 1   
    45    26    41 1   
@<TRIPOS>SUBSTRUCTURE
     1 6TD         1 TEMP              0 ****  ****    0 ROOT
