@<TRIPOS>MOLECULE
6TE
   37    39     1     0     0
SMALL
bcc


@<TRIPOS>ATOM
      1 N3           0.0000     0.0000     0.0000 nb         1 6TE      -0.719000
      2 C4           0.6020     1.1550    -4.0390 cy         1 6TE       0.181500
      3 N2           0.9320     2.4050    -4.7280 n7         1 6TE      -0.573100
      4 C7           1.3300     0.0000     0.0000 ca         1 6TE       0.584200
      5 C6          -1.4110     2.7400    -6.1180 c3         1 6TE       0.008700
      6 C9           1.2280    -0.0010     2.4160 ca         1 6TE       0.272800
      7 C8          -0.6810    -0.0000     1.1320 ca         1 6TE       0.665900
      8 N5           2.1040    -0.0010     3.4660 na         1 6TE       0.274900
      9 C1           2.9670    -1.1370    -1.2470 c3         1 6TE       0.168100
     10 N1           2.0390     0.0010    -1.1880 nh         1 6TE      -0.446300
     11 C2           1.1320     0.0020    -2.3430 cy         1 6TE       0.098500
     12 C3           0.3720     1.3250    -2.5290 cy         1 6TE      -0.051900
     13 C5           1.8330     0.3080    -3.6760 cy         1 6TE      -0.051900
     14 S1           0.3950     2.6660    -6.2720 s6         1 6TE       0.948900
     15 O1           0.9180     3.9420    -6.6150 o          1 6TE      -0.586300
     16 O2           0.7860     1.4980    -6.9820 o          1 6TE      -0.586300
     17 N4          -0.1000    -0.0010     2.3110 nb         1 6TE      -0.656000
     18 C10          1.9950     0.0000     1.2360 ca         1 6TE      -0.369400
     19 C11          3.3950    -0.0000     1.6590 cc         1 6TE      -0.120200
     20 C12          3.3950    -0.0010     3.0010 cd         1 6TE      -0.281100
     21 H2          -0.1780     0.5750    -4.5180 h1         1 6TE       0.049700
     22 H11          1.5060     3.0880    -4.2760 hn         1 6TE       0.355800
     23 H12         -1.8230     3.2870    -6.9570 h1         1 6TE       0.062367
     24 H13         -1.8140     1.7340    -6.1090 h1         1 6TE       0.062367
     25 H14         -1.6740     3.2420    -5.1950 h1         1 6TE       0.062367
     26 H15         -1.7640    -0.0000     1.0870 h5         1 6TE      -0.004900
     27 H3           1.8420    -0.0010     4.4320 hn         1 6TE       0.120700
     28 H4           2.8710    -1.6310    -2.2070 h1         1 6TE       0.013700
     29 H5           2.7300    -1.8380    -0.4550 h1         1 6TE       0.013700
     30 H6           3.9820    -0.7820    -1.1230 h1         1 6TE       0.013700
     31 H1           0.4830    -0.8640    -2.4000 h1         1 6TE       0.049700
     32 H7           0.8980     2.1770    -2.1140 hc         1 6TE       0.039450
     33 H8          -0.6720     1.2580    -2.2480 hc         1 6TE       0.039450
     34 H9           2.7330     0.8990    -3.5560 hc         1 6TE       0.039450
     35 H10          1.9470    -0.5660    -4.3060 hc         1 6TE       0.039450
     36 H16          4.2640    -0.0000     1.0130 ha         1 6TE       0.136000
     37 H17          4.2810    -0.0020     3.6240 h4         1 6TE       0.145000
@<TRIPOS>BOND
     1     1     4 ar  
     2     1     7 ar  
     3     2     3 1   
     4     2    12 1   
     5     2    13 1   
     6     2    21 1   
     7     3    14 1   
     8     3    22 1   
     9     4    10 1   
    10     4    18 ar  
    11     5    14 1   
    12     5    23 1   
    13     5    24 1   
    14     5    25 1   
    15     6     8 1   
    16     6    17 ar  
    17     6    18 ar  
    18     7    17 ar  
    19     7    26 1   
    20     8    20 1   
    21     8    27 1   
    22     9    10 1   
    23     9    28 1   
    24     9    29 1   
    25     9    30 1   
    26    10    11 1   
    27    11    12 1   
    28    11    13 1   
    29    11    31 1   
    30    12    32 1   
    31    12    33 1   
    32    13    34 1   
    33    13    35 1   
    34    14    15 2   
    35    14    16 2   
    36    18    19 1   
    37    19    20 2   
    38    19    36 1   
    39    20    37 1   
@<TRIPOS>SUBSTRUCTURE
     1 6TE         1 TEMP              0 ****  ****    0 ROOT
