@<TRIPOS>MOLECULE
molecule
   62    65     1     0     0
SMALL
bcc


@<TRIPOS>ATOM
      1 C4           0.0000     0.0000     0.0000 ca         1 6TF      -0.133000
      2 C5           9.5210     6.6310     2.8070 ca         1 6TF      -0.173000
      3 C6           8.3850     5.0480     4.2050 ca         1 6TF      -0.173000
      4 C7           0.0110     0.0120     2.4010 ca         1 6TF      -0.160000
      5 C8           2.0810     0.0000     1.1950 ca         1 6TF      -0.133300
      6 C10          9.2150     4.3760     2.0620 ca         1 6TF      -0.137300
      7 C13          4.1750     1.3490     1.2160 c          1 6TF       0.700500
      8 C15          7.2330     2.3000     0.5370 c          1 6TF       0.657100
      9 C17          2.3770     0.0270     3.5490 c3         1 6TF      -0.036100
     10 C20          8.1110     5.5400    -0.5150 c3         1 6TF      -0.122100
     11 C21         -4.8530    -1.2200    -0.8820 c3         1 6TF       0.120300
     12 C22          9.3980     3.3140     1.0100 c3         1 6TF       0.142300
     13 C24          7.9800     4.0790    -0.9510 c3         1 6TF       0.061700
     14 C1           1.3800     0.0000     0.0000 ca         1 6TF      -0.067000
     15 C2           9.6940     5.6550     1.8450 ca         1 6TF      -0.088500
     16 C3           8.5540     4.0750     3.2380 ca         1 6TF      -0.088500
     17 C9           1.3950     0.0120     2.3970 ca         1 6TF      -0.044300
     18 C11         -0.6910     0.0060     1.2050 ca         1 6TF       0.099600
     19 C12          8.8690     6.3280     3.9910 ca         1 6TF       0.140900
     20 C14          5.1680    -0.1500    -0.0900 c          1 6TF       0.834600
     21 C16         -2.7690    -0.6150     0.2260 c          1 6TF       0.781100
     22 C18          3.7270    -0.4250     2.9320 c3         1 6TF      -0.066400
     23 C19          3.5620    -0.0040     1.4660 c3         1 6TF       0.107100
     24 C25          9.0380     3.7670    -2.0110 c3         1 6TF       0.598900
     25 N26          5.1190     1.1390     0.2710 n          1 6TF      -0.504400
     26 N27         -2.0900     0.0070     1.2120 ns         1 6TF      -0.493100
     27 N28         -4.1150    -0.5460     0.1890 ns         1 6TF      -0.602900
     28 N29          8.1770     3.2040     0.2080 n          1 6TF      -0.480800
     29 O30          3.8850     2.3990     1.7470 o          1 6TF      -0.557500
     30 O31          5.9340    -0.5910    -0.9220 o          1 6TF      -0.585500
     31 O32          7.3960     1.5760     1.4960 o          1 6TF      -0.583100
     32 O33         -2.1680    -1.2360    -0.6280 o          1 6TF      -0.639100
     33 O34          4.2710    -0.9020     0.5760 os         1 6TF      -0.346900
     34 F35          8.7050     7.2810     4.9350 f          1 6TF      -0.139900
     35 F36          9.0110     2.4000    -2.3080 f          1 6TF      -0.219967
     36 F37          8.7670     4.5010    -3.1700 f          1 6TF      -0.219967
     37 F38         10.3030     4.1130    -1.5240 f          1 6TF      -0.219967
     38 H1          -0.5430    -0.0040    -0.9370 ha         1 6TF       0.173000
     39 H3           7.8710     4.8110     5.1290 ha         1 6TF       0.147500
     40 H4          -0.5260     0.0160     3.3420 ha         1 6TF       0.133000
     41 H5           2.0640    -0.6690     4.3180 hc         1 6TF       0.066200
     42 H6           7.8980     5.6210     0.5440 hc         1 6TF       0.065033
     43 H7           9.1190     5.8850    -0.7080 hc         1 6TF       0.065033
     44 H8           7.4080     6.1470    -1.0720 hc         1 6TF       0.065033
     45 H9          -4.5440    -0.8210    -1.8400 h1         1 6TF       0.044033
     46 H10         -5.9150    -1.0560    -0.7480 h1         1 6TF       0.044033
     47 H11         -4.6460    -2.2830    -0.8500 h1         1 6TF       0.044033
     48 H12         10.2290     3.5810     0.3670 h1         1 6TF       0.084200
     49 H13          9.6030     2.3630     1.4870 h1         1 6TF       0.084200
     50 H14          6.9930     3.9130    -1.3660 h1         1 6TF       0.090700
     51 H15          1.9180    -0.0050    -0.9400 ha         1 6TF       0.139000
     52 H16         10.2040     5.8910     0.9190 ha         1 6TF       0.149000
     53 H17          8.1760     3.0740     3.4060 ha         1 6TF       0.149000
     54 H18          3.8470    -1.4990     3.0130 hc         1 6TF       0.077200
     55 H21         -2.5870     0.4800     1.9400 hn         1 6TF       0.319500
     56 H22         -4.6110    -0.0520     0.9040 hn         1 6TF       0.307500
     57 H23          2.4660     1.0280     3.9530 hc         1 6TF       0.066200
     58 H24          4.5560     0.1000     3.3920 hc         1 6TF       0.077200
     59 C23          5.9770     2.1870    -0.2870 c3         1 6TF       0.045000
     60 H2           9.8980     7.6320     2.6370 ha         1 6TF       0.147500
     61 H19          5.4490     3.1330    -0.2710 h1         1 6TF       0.093200
     62 H20          6.2360     1.9360    -1.3090 h1         1 6TF       0.093200
@<TRIPOS>BOND
     1    11    27 1
     2    32    21 2
     3    27    21 1
     4    21    26 1
     5    26    18 1
     6    18     4 ar
     7    18     1 ar
     8     4    17 ar
     9     1    14 ar
    10    17     9 1
    11    17     5 ar
    12     9    22 1
    13     5    14 ar
    14     5    23 1
    15    33    23 1
    16    33    20 1
    17    22    23 1
    18    23     7 1
    19    30    20 2
    20    20    25 1
    21     7    25 1
    22     7    29 2
    23    25    59 1
    24    31     8 2
    25    36    24 1
    26    59     8 1
    27     8    28 1
    28    35    24 1
    29    24    13 1
    30    24    37 1
    31    28    13 1
    32    28    12 1
    33    13    10 1
    34    12     6 1
    35     6    16 ar
    36     6    15 ar
    37    16     3 ar
    38    15     2 ar
    39     3    19 ar
    40     2    19 ar
    41    19    34 1
    42     1    38 1
    43     2    60 1
    44     3    39 1
    45     4    40 1
    46     9    41 1
    47    10    42 1
    48    10    43 1
    49    10    44 1
    50    11    45 1
    51    11    46 1
    52    11    47 1
    53    12    48 1
    54    12    49 1
    55    13    50 1
    56    14    51 1
    57    15    52 1
    58    16    53 1
    59    22    54 1
    60    59    61 1
    61    59    62 1
    62    26    55 1
    63    27    56 1
    64     9    57 1
    65    22    58 1
@<TRIPOS>SUBSTRUCTURE
     1 6TF         1 TEMP              0 ****  ****    0 ROOT
