@<TRIPOS>MOLECULE
6TG
   53    56     1     0     0
SMALL
bcc


@<TRIPOS>ATOM
      1 C1           0.0000     0.0000     0.0000 c3         1 6TG       0.060700
      2 C2           1.5080     0.0000     0.0000 ca         1 6TG      -0.095300
      3 C3           2.1990     0.0000     1.1970 ca         1 6TG      -0.078500
      4 C4           3.5810    -0.0010     1.1980 ca         1 6TG      -0.136300
      5 C5           4.2760    -0.0020     0.0030 ca         1 6TG      -0.078500
      6 C6           3.5890    -0.0020    -1.1960 ca         1 6TG      -0.095300
      7 C7           2.2030    -0.0070    -1.2000 ca         1 6TG       0.153100
      8 O8           1.5250    -0.0130    -2.3790 os         1 6TG      -0.334900
      9 C9           1.2020     1.2570    -2.9470 c3         1 6TG       0.257700
     10 C10          4.3470    -0.0030    -2.4980 c3         1 6TG       0.060700
     11 C11          4.3320    -0.0000     2.5050 c3         1 6TG       0.361000
     12 N12          3.5550    -0.7020     3.5340 n2         1 6TG      -0.401900
     13 C13          4.2600    -1.7050     3.9320 ce         1 6TG       0.281000
     14 C14          5.5420    -1.7390     3.2000 ce         1 6TG       0.013900
     15 N15          5.5910    -0.7440     2.3650 n2         1 6TG      -0.335900
     16 N16          6.5350    -2.6780     3.3770 nz         1 6TG       0.241400
     17 C17          3.8370    -2.6960     4.9860 c3         1 6TG      -0.009400
     18 C18          4.6100     1.4150     2.9410 ca         1 6TG      -0.118300
     19 C19          3.6990     2.0850     3.7380 ca         1 6TG      -0.069000
     20 C20          3.9480     3.3820     4.1430 ca         1 6TG      -0.079000
     21 C21          5.1090     4.0190     3.7520 ca         1 6TG      -0.070000
     22 C22          6.0310     3.3500     2.9500 cp         1 6TG      -0.007000
     23 C23          5.7770     2.0400     2.5490 ca         1 6TG      -0.094000
     24 C24          7.2800     4.0290     2.5260 cp         1 6TG      -0.293600
     25 C25          7.5540     5.3410     2.9210 ca         1 6TG       0.446700
     26 N26          8.6790     5.9090     2.5220 nb         1 6TG      -0.614500
     27 C27          9.5360     5.2540     1.7620 ca         1 6TG       0.642900
     28 N28          9.3160     4.0160     1.3670 nb         1 6TG      -0.614500
     29 C29          8.2190     3.3730     1.7250 ca         1 6TG       0.446700
     30 H11C        -0.3610    -0.5740    -0.8450 hc         1 6TG       0.018700
     31 H12C        -0.3610     1.0190    -0.0740 hc         1 6TG       0.018700
     32 H13C        -0.3610    -0.4450     0.9190 hc         1 6TG       0.018700
     33 H3           1.6570     0.0010     2.1340 ha         1 6TG       0.120500
     34 H5           5.3590    -0.0010     0.0070 ha         1 6TG       0.120500
     35 H101         4.4650     1.0150    -2.8480 hc         1 6TG       0.018700
     36 H102         3.7990    -0.5770    -3.2350 hc         1 6TG       0.018700
     37 H103         5.3230    -0.4480    -2.3480 hc         1 6TG       0.018700
     38 H91C         1.5730     2.0460    -2.3040 h1         1 6TG      -0.001967
     39 H92C         0.1260     1.3460    -3.0440 h1         1 6TG      -0.001967
     40 H93C         1.6610     1.3430    -3.9250 h1         1 6TG      -0.001967
     41 H171         2.8540    -2.4330     5.3560 hc         1 6TG       0.032033
     42 H172         3.8060    -3.6900     4.5560 hc         1 6TG       0.032033
     43 H173         4.5480    -2.6790     5.8040 hc         1 6TG       0.032033
     44 H161         6.8570    -2.6490     4.3240 hn         1 6TG       0.215467
     45 H162         6.1720    -3.5880     3.1750 hn         1 6TG       0.215467
     46 H19          2.7860     1.5890     4.0480 ha         1 6TG       0.126000
     47 H23          6.4900     1.5150     1.9250 ha         1 6TG       0.119000
     48 H20          3.2310     3.9010     4.7670 ha         1 6TG       0.120000
     49 H21          5.3030     5.0370     4.0680 ha         1 6TG       0.123000
     50 H25          6.8550     5.8850     3.5450 h4         1 6TG      -0.012400
     51 H29          8.0450     2.3550     1.3960 h4         1 6TG      -0.012400
     52 H27         10.4470     5.7500     1.4510 h5         1 6TG       0.009100
     53 H163         7.2960    -2.4790     2.7580 hn         1 6TG       0.215467
@<TRIPOS>BOND
     1     1     2 1   
     2     1    30 1   
     3     1    31 1   
     4     1    32 1   
     5     2     3 ar  
     6     2     7 ar  
     7     3     4 ar  
     8     3    33 1   
     9     4     5 ar  
    10     4    11 1   
    11     5     6 ar  
    12     5    34 1   
    13     6     7 ar  
    14     6    10 1   
    15     7     8 1   
    16     8     9 1   
    17     9    38 1   
    18     9    39 1   
    19     9    40 1   
    20    10    35 1   
    21    10    36 1   
    22    10    37 1   
    23    11    12 1   
    24    11    15 1   
    25    11    18 1   
    26    12    13 2   
    27    13    14 1   
    28    13    17 1   
    29    14    15 2   
    30    14    16 1   
    31    16    44 1   
    32    16    45 1   
    33    16    53 1   
    34    17    41 1   
    35    17    42 1   
    36    17    43 1   
    37    18    19 ar  
    38    18    23 ar  
    39    19    20 ar  
    40    19    46 1   
    41    20    21 ar  
    42    20    48 1   
    43    21    22 ar  
    44    21    49 1   
    45    22    23 ar  
    46    22    24 1   
    47    23    47 1   
    48    24    25 ar  
    49    24    29 ar  
    50    25    26 ar  
    51    25    50 1   
    52    26    27 ar  
    53    27    28 ar  
    54    27    52 1   
    55    28    29 ar  
    56    29    51 1   
@<TRIPOS>SUBSTRUCTURE
     1 6TG         1 TEMP              0 ****  ****    0 ROOT
