@<TRIPOS>MOLECULE
6TH
   62    64     1     0     0
SMALL
bcc


@<TRIPOS>ATOM
      1 C4           0.0000     0.0000     0.0000 c3         1 6TH       0.004600
      2 C5           1.5300     0.0000     0.0000 c3         1 6TH      -0.027400
      3 C6           2.0400     0.0000     1.4430 c3         1 6TH       0.004600
      4 N1           0.2560    -4.8040     4.9330 n          1 6TH      -0.068800
      5 C7           1.5290    -1.2490     2.1640 c3         1 6TH      -0.110900
      6 C8          -0.5220    -3.7100     5.0480 c          1 6TH       0.583100
      7 C9           1.5140    -4.8880     4.1710 c3         1 6TH       0.015000
      8 C10          1.6730    -6.3900     3.8310 c3         1 6TH      -0.019400
      9 C11          1.1290    -7.0620     5.1190 c3         1 6TH      -0.027400
     10 C12         -0.0100    -6.1120     5.5510 c3         1 6TH      -0.045300
     11 C13         -0.0290    -5.9830     7.0520 c          1 6TH       0.523100
     12 C14         -0.2610    -6.9450     9.2780 c3         1 6TH      -0.090700
     13 C15         -0.5190    -8.2960     9.8950 ca         1 6TH      -0.086300
     14 O2          -1.5410    -3.7560     5.7040 o          1 6TH      -0.608100
     15 C           -0.1240    -2.4270     4.3620 c3         1 6TH      -0.076500
     16 C1          -0.5110    -2.4990     2.8840 c3         1 6TH      -0.205400
     17 C2          -0.0010    -1.2500     2.1630 c3         1 6TH       0.075300
     18 C3          -0.5100    -1.2490     0.7210 c3         1 6TH      -0.110900
     19 N           -0.8180    -1.2980     4.9960 nz         1 6TH       0.022400
     20 O1           0.1510    -4.9010     7.5700 o          1 6TH      -0.665100
     21 C20          0.5120    -9.2060    10.0210 ca         1 6TH      -0.093300
     22 C21          1.8950    -8.8480     9.5400 c3         1 6TH       0.287700
     23 O            2.7800    -9.9450     9.7780 oh         1 6TH      -0.590800
     24 C19          0.2770   -10.4450    10.5880 ca         1 6TH      -0.063000
     25 C18         -0.9920   -10.7730    11.0290 ca         1 6TH      -0.082000
     26 C17         -2.0250    -9.8610    10.9030 ca         1 6TH      -0.037600
     27 Cl          -3.6180   -10.2740    11.4560 cl         1 6TH      -0.004400
     28 C16         -1.7870    -8.6200    10.3410 ca         1 6TH      -0.097000
     29 H1          -0.3600     0.8840     0.5130 hc         1 6TH       0.019950
     30 H2          -0.3600    -0.0020    -1.0220 hc         1 6TH       0.019950
     31 H3           1.8900     0.8860    -0.5090 hc         1 6TH       0.030700
     32 H4           1.8900    -0.8860    -0.5090 hc         1 6TH       0.030700
     33 H5           1.6770     0.8840     1.9530 hc         1 6TH       0.019950
     34 H6           3.1230    -0.0030     1.4410 hc         1 6TH       0.019950
     35 H7           1.8890    -1.2460     3.1860 hc         1 6TH       0.037700
     36 H8           1.8900    -2.1330     1.6510 hc         1 6TH       0.037700
     37 H9          -0.4440    -7.9520     7.3900 hn         1 6TH       0.187500
     38 H10          1.4420    -4.3030     3.2620 h1         1 6TH       0.026700
     39 H11          2.3440    -4.5510     4.7790 h1         1 6TH       0.026700
     40 H12          2.7150    -6.6420     3.6750 hc         1 6TH       0.040700
     41 H13          1.0690    -6.6570     2.9720 hc         1 6TH       0.040700
     42 H14          0.7390    -8.0480     4.8990 hc         1 6TH       0.042200
     43 H15          1.8980    -7.1060     5.8800 hc         1 6TH       0.042200
     44 H16         -0.9590    -6.4960     5.1990 h1         1 6TH       0.057700
     45 H17         -1.1600    -6.9290     8.6740 h1         1 6TH       0.100700
     46 H18         -0.2440    -6.0140     9.8310 h1         1 6TH       0.100700
     47 H19          0.9470    -2.2880     4.4490 hx         1 6TH       0.082700
     48 H20          0.5320    -2.5250     3.1750 hc         1 6TH       0.096700
     49 H21         -0.6300    -3.4380     2.3580 hc         1 6TH       0.096700
     50 H22         -0.3600    -0.3620     2.6710 hc         1 6TH      -0.022300
     51 H23         -0.9020    -0.5150     1.4140 hc         1 6TH       0.037700
     52 H24         -1.4000    -1.7760     0.4000 hc         1 6TH       0.037700
     53 H25         -0.1440    -0.6440     5.3410 hn         1 6TH       0.240467
     54 H26         -1.3750    -1.6340     5.7570 hn         1 6TH       0.240467
     55 H28          2.2490    -7.9760    10.0760 h1         1 6TH      -0.006800
     56 H29          1.8640    -8.6320     8.4790 h1         1 6TH      -0.006800
     57 H30          3.6660    -9.6280     9.8360 ho         1 6TH       0.397000
     58 H31          1.0860   -11.1580    10.6870 ha         1 6TH       0.135000
     59 H32         -1.1770   -11.7440    11.4730 ha         1 6TH       0.123000
     60 H33         -2.5950    -7.9060    10.2420 ha         1 6TH       0.117000
     61 N2          -0.2440    -7.0700     7.8190 ns         1 6TH      -0.093900
     62 HN3         -1.4000    -0.8430     4.3220 hn         1 6TH       0.240467
@<TRIPOS>BOND
     1     1     2 1   
     2     1    18 1   
     3     1    29 1   
     4     1    30 1   
     5     2     3 1   
     6     2    31 1   
     7     2    32 1   
     8     3     5 1   
     9     3    33 1   
    10     3    34 1   
    11     4     6 1   
    12     4     7 1   
    13     4    10 1   
    14     5    17 1   
    15     5    35 1   
    16     5    36 1   
    17     6    14 2   
    18     6    15 1   
    19     7     8 1   
    20     7    38 1   
    21     7    39 1   
    22     8     9 1   
    23     8    40 1   
    24     8    41 1   
    25     9    10 1   
    26     9    42 1   
    27     9    43 1   
    28    10    11 1   
    29    10    44 1   
    30    11    20 2   
    31    11    61 1   
    32    12    13 1   
    33    12    45 1   
    34    12    46 1   
    35    12    61 1   
    36    13    21 ar  
    37    13    28 ar  
    38    15    16 1   
    39    15    19 1   
    40    15    47 1   
    41    16    17 1   
    42    16    48 1   
    43    16    49 1   
    44    17    18 1   
    45    17    50 1   
    46    18    51 1   
    47    18    52 1   
    48    19    53 1   
    49    19    54 1   
    50    19    62 1   
    51    21    22 1   
    52    21    24 ar  
    53    22    23 1   
    54    22    55 1   
    55    22    56 1   
    56    23    57 1   
    57    24    25 ar  
    58    24    58 1   
    59    25    26 ar  
    60    25    59 1   
    61    26    27 1   
    62    26    28 ar  
    63    28    60 1   
    64    37    61 1   
@<TRIPOS>SUBSTRUCTURE
     1 6TH         1 TEMP              0 ****  ****    0 ROOT
