@<TRIPOS>MOLECULE
molecule
   62    64     1     0     0
SMALL
bcc


@<TRIPOS>ATOM
      1 C4           0.0000     0.0000     0.0000 c3         1 6TH      -0.062400
      2 C5           1.5300     0.0000     0.0000 c3         1 6TH      -0.080400
      3 C6           2.0400     0.0000     1.4430 c3         1 6TH      -0.062400
      4 N1           0.2560    -4.8040     4.9330 n          1 6TH      -0.449800
      5 C7           1.5290    -1.2490     2.1640 c3         1 6TH      -0.146400
      6 C8          -0.5220    -3.7100     5.0480 c          1 6TH       0.668100
      7 C9           1.5140    -4.8880     4.1710 c3         1 6TH       0.073000
      8 C10          1.6730    -6.3900     3.8310 c3         1 6TH      -0.087400
      9 C11          1.1290    -7.0620     5.1190 c3         1 6TH      -0.088400
     10 C12         -0.0100    -6.1120     5.5510 c3         1 6TH       0.040700
     11 C13         -0.0290    -5.9830     7.0520 c          1 6TH       0.616100
     12 C14         -0.2610    -6.9450     9.2780 c3         1 6TH      -0.065700
     13 C15         -0.5190    -8.2960     9.8950 ca         1 6TH      -0.081300
     14 O2          -1.5410    -3.7560     5.7040 o          1 6TH      -0.569100
     15 C           -0.1240    -2.4270     4.3620 c3         1 6TH       0.086500
     16 C1          -0.5110    -2.4990     2.8840 c3         1 6TH      -0.223400
     17 C2          -0.0010    -1.2500     2.1630 c3         1 6TH       0.013300
     18 C3          -0.5100    -1.2490     0.7210 c3         1 6TH      -0.146400
     19 N           -0.8180    -1.2980     4.9960 nz         1 6TH      -0.815600
     20 O1           0.1510    -4.9010     7.5700 o          1 6TH      -0.614100
     21 C20          0.5120    -9.2060    10.0210 ca         1 6TH      -0.076300
     22 C21          1.8950    -8.8480     9.5400 c3         1 6TH       0.192700
     23 O            2.7800    -9.9450     9.7780 oh         1 6TH      -0.609800
     24 C19          0.2770   -10.4450    10.5880 ca         1 6TH      -0.092000
     25 C18         -0.9920   -10.7730    11.0290 ca         1 6TH      -0.110000
     26 C17         -2.0250    -9.8610    10.9030 ca         1 6TH       0.029400
     27 Cl          -3.6180   -10.2740    11.4560 cl         1 6TH      -0.091400
     28 C16         -1.7870    -8.6200    10.3410 ca         1 6TH      -0.120000
     29 H1          -0.3600     0.8840     0.5130 hc         1 6TH       0.051200
     30 H2          -0.3600    -0.0020    -1.0220 hc         1 6TH       0.051200
     31 H3           1.8900     0.8860    -0.5090 hc         1 6TH       0.060700
     32 H4           1.8900    -0.8860    -0.5090 hc         1 6TH       0.060700
     33 H5           1.6770     0.8840     1.9530 hc         1 6TH       0.051200
     34 H6           3.1230    -0.0030     1.4410 hc         1 6TH       0.051200
     35 H7           1.8890    -1.2460     3.1860 hc         1 6TH       0.063200
     36 H8           1.8900    -2.1330     1.6510 hc         1 6TH       0.063200
     37 H9          -0.4440    -7.9520     7.3900 hn         1 6TH       0.333500
     38 H10          1.4420    -4.3030     3.2620 h1         1 6TH       0.054200
     39 H11          2.3440    -4.5510     4.7790 h1         1 6TH       0.054200
     40 H12          2.7150    -6.6420     3.6750 hc         1 6TH       0.075200
     41 H13          1.0690    -6.6570     2.9720 hc         1 6TH       0.075200
     42 H14          0.7390    -8.0480     4.8990 hc         1 6TH       0.077700
     43 H15          1.8980    -7.1060     5.8800 hc         1 6TH       0.077700
     44 H16         -0.9590    -6.4960     5.1990 h1         1 6TH       0.088700
     45 H17         -1.1600    -6.9290     8.6740 h1         1 6TH       0.157700
     46 H18         -0.2440    -6.0140     9.8310 h1         1 6TH       0.157700
     47 H19          0.9470    -2.2880     4.4490 hx         1 6TH       0.100700
     48 H20          0.5320    -2.5250     3.1750 hc         1 6TH       0.121700
     49 H21         -0.6300    -3.4380     2.3580 hc         1 6TH       0.121700
     50 H22         -0.3600    -0.3620     2.6710 hc         1 6TH      -0.003300
     51 H23         -0.9020    -0.5150     1.4140 hc         1 6TH       0.063200
     52 H24         -1.4000    -1.7760     0.4000 hc         1 6TH       0.063200
     53 H25         -0.1440    -0.6440     5.3410 hn         1 6TH       0.462133
     54 H26         -1.3750    -1.6340     5.7570 hn         1 6TH       0.462133
     55 H28          2.2490    -7.9760    10.0760 h1         1 6TH       0.034700
     56 H29          1.8640    -8.6320     8.4790 h1         1 6TH       0.034700
     57 H30          3.6660    -9.6280     9.8360 ho         1 6TH       0.411000
     58 H31          1.0860   -11.1580    10.6870 ha         1 6TH       0.168000
     59 H32         -1.1770   -11.7440    11.4730 ha         1 6TH       0.155000
     60 H33         -2.5950    -7.9060    10.2420 ha         1 6TH       0.145000
     61 N2          -0.2440    -7.0700     7.8190 ns         1 6TH      -0.529900
     62 HN3         -1.4000    -0.8430     4.3220 hn         1 6TH       0.462133
@<TRIPOS>BOND
     1     9     8 1
     2     9    10 1
     3    20    11 2
     4     8     7 1
     5    11    61 1
     6    11    10 1
     7    12    61 1
     8    12    13 1
     9     7     4 1
    10    10     4 1
    11    22    23 1
    12    22    21 1
    13     4     6 1
    14    13    21 ar
    15    13    28 ar
    16    21    24 ar
    17     6    14 2
    18     6    15 1
    19    28    26 ar
    20    19    15 1
    21    24    25 ar
    22    15    16 1
    23    26    25 ar
    24    26    27 1
    25    18     1 1
    26    18    17 1
    27     1     2 1
    28    16    17 1
    29    17     5 1
    30     2     3 1
    31     5     3 1
    32     1    29 1
    33     1    30 1
    34     2    31 1
    35     2    32 1
    36     3    33 1
    37     3    34 1
    38     5    35 1
    39     5    36 1
    40    61    37 1
    41     7    38 1
    42     7    39 1
    43     8    40 1
    44     8    41 1
    45     9    42 1
    46     9    43 1
    47    10    44 1
    48    12    45 1
    49    12    46 1
    50    15    47 1
    51    16    48 1
    52    16    49 1
    53    17    50 1
    54    18    51 1
    55    18    52 1
    56    19    53 1
    57    19    54 1
    58    22    55 1
    59    22    56 1
    60    23    57 1
    61    24    58 1
    62    25    59 1
    63    28    60 1
    64    62    19 1
@<TRIPOS>SUBSTRUCTURE
     1 6TH         1 TEMP              0 ****  ****    0 ROOT
