@<TRIPOS>MOLECULE
6TJ
   29    31     1     0     0
SMALL
bcc


@<TRIPOS>ATOM
      1 O01          0.0000     0.0000     0.0000 o          1 6TJ      -0.858800
      2 C02          1.3470     0.0000     0.0000 c          1 6TJ       0.946200
      3 O03          1.9550     0.0000     1.0520 o          1 6TJ      -0.858800
      4 C04          2.0860     0.0010    -1.2800 ca         1 6TJ      -0.018600
      5 C05          1.3950     0.0020    -2.4890 ca         1 6TJ      -0.077000
      6 C06          2.0890     0.0040    -3.6850 ca         1 6TJ      -0.118000
      7 C07          3.4730     0.0050    -3.6910 ca         1 6TJ      -0.113000
      8 C08          4.1720     0.0050    -2.5020 ca         1 6TJ      -0.142300
      9 C09          5.6440     0.0050    -2.1720 c3         1 6TJ       0.108300
     10 N10          5.7360     0.0040    -0.7070 n          1 6TJ      -0.024000
     11 C11          4.4920     0.0030    -0.1970 c          1 6TJ       0.619100
     12 O12          4.2270     0.0020     0.9890 o          1 6TJ      -0.554500
     13 C13          3.4940     0.0080    -1.2850 ca         1 6TJ      -0.136600
     14 C14          6.9210     0.0030     0.0350 ca         1 6TJ       0.012600
     15 C15          8.1490     0.0100    -0.6150 ca         1 6TJ      -0.158500
     16 C16          9.3180     0.0100     0.1210 ca         1 6TJ      -0.089500
     17 C17          9.2660     0.0030     1.5040 ca         1 6TJ      -0.162000
     18 C18          8.0450    -0.0040     2.1530 ca         1 6TJ      -0.089500
     19 C19          6.8730     0.0020     1.4230 ca         1 6TJ      -0.158500
     20 H2           0.3120     0.0020    -2.4920 ha         1 6TJ       0.135000
     21 H3           1.5460     0.0050    -4.6230 ha         1 6TJ       0.086000
     22 H4           4.0090     0.0060    -4.6320 ha         1 6TJ       0.084000
     23 H5           6.1130     0.8950    -2.5730 h1         1 6TJ       0.013200
     24 H6           6.1140    -0.8840    -2.5740 h1         1 6TJ       0.013200
     25 H7           8.1900    -0.0310    -1.6970 ha         1 6TJ       0.134000
     26 H8          10.2760     0.0150    -0.3850 ha         1 6TJ       0.093000
     27 H9          10.1840     0.0030     2.0790 ha         1 6TJ       0.091000
     28 H10          8.0090    -0.0140     3.2350 ha         1 6TJ       0.093000
     29 H11          6.1380     0.0050     2.2190 ha         1 6TJ       0.134000
@<TRIPOS>BOND
     1     1     2 1   
     2     2     3 1   
     3     2     4 1   
     4     4     5 ar  
     5     4    13 ar  
     6     5     6 ar  
     7     5    20 1   
     8     6     7 ar  
     9     6    21 1   
    10     7     8 ar  
    11     7    22 1   
    12     8     9 1   
    13     8    13 ar  
    14     9    10 1   
    15     9    23 1   
    16     9    24 1   
    17    10    11 1   
    18    10    14 1   
    19    11    12 2   
    20    11    13 1   
    21    14    15 ar  
    22    14    19 ar  
    23    15    16 ar  
    24    15    25 1   
    25    16    17 ar  
    26    16    26 1   
    27    17    18 ar  
    28    17    27 1   
    29    18    19 ar  
    30    18    28 1   
    31    19    29 1   
@<TRIPOS>SUBSTRUCTURE
     1 6TJ         1 TEMP              0 ****  ****    0 ROOT
