@<TRIPOS>MOLECULE
molecule
   80    85     1     0     0
SMALL
bcc


@<TRIPOS>ATOM
      1 C1           0.0000     0.0000     0.0000 ca         1 6TL      -0.157000
      2 C2           1.3880     0.0000     0.0000 ca         1 6TL      -0.109000
      3 C3           2.0910     0.0000     1.1860 ca         1 6TL      -0.144000
      4 N6          -8.7610   -10.6980    -3.0490 n3         1 6TL      -0.706600
      5 C7          -0.4130     0.0110     3.7960 cc         1 6TL      -0.157400
      6 C8           0.7100     0.0020     4.5320 cd         1 6TL      -0.096100
      7 C9          -1.8270     0.0170     4.3170 c3         1 6TL      -0.003200
      8 C10         -2.3540    -1.4170     4.3790 c3         1 6TL       0.164800
      9 C11         -4.1910    -2.7760     5.1850 c3         1 6TL       0.160300
     10 C12         -5.5970    -2.7190     5.7840 c3         1 6TL       0.168800
     11 C13         -6.0470    -0.6930     4.5390 c3         1 6TL       0.168800
     12 C14         -4.6400    -0.7480     3.9400 c3         1 6TL       0.160300
     13 C15         -7.8130    -2.0510     5.3190 ca         1 6TL       0.095600
     14 C16         -8.1100    -1.4250     6.5220 ca         1 6TL      -0.160000
     15 C19        -10.1390    -2.6530     5.0770 ca         1 6TL      -0.111000
     16 C20         -8.8350    -2.6700     4.5900 cp         1 6TL      -0.022000
     17 C21         -8.5300    -3.3410     3.3020 cp         1 6TL      -0.156300
     18 C22         -8.9760    -4.6410     3.0580 ca         1 6TL      -0.029000
     19 C24         -7.9170    -4.4950     0.9010 ca         1 6TL       0.438200
     20 C27         -9.2400    -8.5190     0.0190 c3         1 6TL       0.112000
     21 C30         -7.2960   -10.9410    -3.0620 c3         1 6TL       0.144300
     22 C31         -7.0900   -11.7980    -4.3360 c3         1 6TL      -0.088400
     23 C32         -8.3410   -12.7040    -4.3500 c3         1 6TL      -0.088400
     24 C33         -9.3840   -11.9640    -3.4930 c3         1 6TL       0.144300
     25 O           -9.7530    -7.2310     2.3320 o          1 6TL      -0.610100
     26 N5          -8.7980    -7.1570     0.3280 ns         1 6TL      -0.583900
     27 C28         -8.7600    -8.9050    -1.3810 c3         1 6TL      -0.100400
     28 C29         -9.2220   -10.3270    -1.7050 c3         1 6TL       0.157800
     29 C23         -8.6610    -5.2270     1.8290 ca         1 6TL      -0.276900
     30 N4          -7.5210    -3.2680     1.1700 nb         1 6TL      -0.702000
     31 C25         -7.7960    -2.6800     2.3170 ca         1 6TL       0.474200
     32 C18        -10.4180    -2.0280     6.2760 ca         1 6TL      -0.130000
     33 C17         -9.4080    -1.4160     6.9950 ca         1 6TL      -0.117000
     34 N3          -6.5050    -2.0560     4.8370 nh         1 6TL      -0.624000
     35 N2          -3.7320    -1.4110     4.8870 n3         1 6TL      -0.738600
     36 C5          -0.0020     0.0060     2.3900 ca         1 6TL      -0.098800
     37 C6          -0.6940     0.0060     1.1770 ca         1 6TL      -0.079000
     38 N1           1.8050     0.0010     3.7130 na         1 6TL      -0.183400
     39 C4           1.4040     0.0000     2.3950 ca         1 6TL      -0.038200
     40 H1          -0.5370    -0.0000    -0.9410 ha         1 6TL       0.129000
     41 H2           1.9240    -0.0050    -0.9410 ha         1 6TL       0.129000
     42 H3           3.1740     0.0000     1.1750 ha         1 6TL       0.125000
     43 H5           0.7430    -0.0040     5.6150 h4         1 6TL       0.166000
     44 H6          -1.8430     0.4510     5.3100 hc         1 6TL       0.052200
     45 H7          -2.4530     0.6050     3.6560 hc         1 6TL       0.052200
     46 H8          -1.7280    -2.0040     5.0400 h1         1 6TL       0.039200
     47 H9          -2.3370    -1.8510     3.3860 h1         1 6TL       0.039200
     48 H10         -3.5150    -3.2360     5.8950 h1         1 6TL       0.044950
     49 H11         -4.2120    -3.3560     4.2700 h1         1 6TL       0.044950
     50 H12         -5.9480    -3.7260     5.9750 h1         1 6TL       0.044950
     51 H13         -5.5710    -2.1580     6.7110 h1         1 6TL       0.044950
     52 H14         -6.0260    -0.1120     5.4540 h1         1 6TL       0.044950
     53 H15         -6.7230    -0.2330     3.8290 h1         1 6TL       0.044950
     54 H16         -4.2900     0.2590     3.7500 h1         1 6TL       0.044950
     55 H17         -4.6650    -1.3080     3.0130 h1         1 6TL       0.044950
     56 H18         -7.3230    -0.9440     7.0910 ha         1 6TL       0.138000
     57 H19        -10.9340    -3.1310     4.5170 ha         1 6TL       0.140000
     58 H20         -9.5510    -5.1810     3.8010 ha         1 6TL       0.165000
     59 H21         -7.6680    -4.9400    -0.0550 h4         1 6TL       0.014100
     60 H22        -10.3210    -8.5640     0.0550 h1         1 6TL       0.053700
     61 H23         -8.8240    -9.2070     0.7450 h1         1 6TL       0.053700
     62 H24         -6.7560   -10.0050    -3.1410 h1         1 6TL       0.041450
     63 H25         -6.9940   -11.4920    -2.1800 h1         1 6TL       0.041450
     64 H26         -7.0640   -11.1690    -5.2180 hc         1 6TL       0.049450
     65 H27         -6.1880   -12.3930    -4.2540 hc         1 6TL       0.049450
     66 H28         -8.7060   -12.8230    -5.3640 hc         1 6TL       0.049450
     67 H29         -8.1110   -13.6670    -3.9110 hc         1 6TL       0.049450
     68 H30         -9.6470   -12.5660    -2.6320 h1         1 6TL       0.041450
     69 H31        -10.2650   -11.7520    -4.0860 h1         1 6TL       0.041450
     70 H32         -8.2690    -6.6370    -0.3450 hn         1 6TL       0.315500
     71 H33         -9.1750    -8.2170    -2.1080 hc         1 6TL       0.053700
     72 H34         -7.6780    -8.8600    -1.4170 hc         1 6TL       0.053700
     73 H35        -10.3040   -10.3720    -1.6680 h1         1 6TL       0.038200
     74 H36         -8.8070   -11.0160    -0.9780 h1         1 6TL       0.038200
     75 H37         -7.4500    -1.6690     2.4960 h4         1 6TL       0.035100
     76 H38        -11.4330    -2.0150     6.6540 ha         1 6TL       0.133000
     77 H39         -9.6350    -0.9270     7.9350 ha         1 6TL       0.131000
     78 H41         -1.7770     0.0060     1.1690 ha         1 6TL       0.129000
     79 H42          2.7560    -0.0050     4.0240 hn         1 6TL       0.295700
     80 C26         -9.1070    -6.6010     1.5170 c          1 6TL       0.677700
@<TRIPOS>BOND
     1    22    23 1
     2    22    21 1
     3    23    24 1
     4    21     4 1
     5     4    24 1
     6     4    28 1
     7    28    27 1
     8    27    20 1
     9    20    26 1
    10    38     6 1
    11    38    39 1
    12     6     5 2
    13    26    80 1
    14    25    80 2
    15    80    29 1
    16    39     3 ar
    17    39    36 ar
    18     5     7 1
    19     5    36 1
    20     7     8 1
    21    10     9 1
    22    10    34 1
    23     3     2 ar
    24    18    29 ar
    25    18    17 ar
    26    29    19 ar
    27     9    35 1
    28    36    37 ar
    29    35     8 1
    30    35    12 1
    31    17    16 1
    32    17    31 ar
    33    15    16 ar
    34    15    32 ar
    35    19    30 ar
    36    16    13 ar
    37    32    33 ar
    38    34    13 1
    39    34    11 1
    40    13    14 ar
    41     2     1 ar
    42    33    14 ar
    43    37     1 ar
    44    31    30 ar
    45    11    12 1
    46     1    40 1
    47     2    41 1
    48     3    42 1
    49     6    43 1
    50     7    44 1
    51     7    45 1
    52     8    46 1
    53     8    47 1
    54     9    48 1
    55     9    49 1
    56    10    50 1
    57    10    51 1
    58    11    52 1
    59    11    53 1
    60    12    54 1
    61    12    55 1
    62    14    56 1
    63    15    57 1
    64    18    58 1
    65    19    59 1
    66    20    60 1
    67    20    61 1
    68    21    62 1
    69    21    63 1
    70    22    64 1
    71    22    65 1
    72    23    66 1
    73    23    67 1
    74    24    68 1
    75    24    69 1
    76    26    70 1
    77    27    71 1
    78    27    72 1
    79    28    73 1
    80    28    74 1
    81    31    75 1
    82    32    76 1
    83    33    77 1
    84    37    78 1
    85    38    79 1
@<TRIPOS>SUBSTRUCTURE
     1 6TL         1 TEMP              0 ****  ****    0 ROOT
