@<TRIPOS>MOLECULE
6TL
   80    85     1     0     0
SMALL
bcc


@<TRIPOS>ATOM
      1 C1           0.0000     0.0000     0.0000 ca         1 6TL      -0.132000
      2 C2           1.3880     0.0000     0.0000 ca         1 6TL      -0.085000
      3 C3           2.0910     0.0000     1.1860 ca         1 6TL      -0.104000
      4 N6          -8.7610   -10.6980    -3.0490 n3         1 6TL      -0.545600
      5 C7          -0.4130     0.0110     3.7960 cc         1 6TL      -0.150400
      6 C8           0.7100     0.0020     4.5320 cd         1 6TL      -0.265100
      7 C9          -1.8270     0.0170     4.3170 c3         1 6TL       0.061800
      8 C10         -2.3540    -1.4170     4.3790 c3         1 6TL       0.152800
      9 C11         -4.1910    -2.7760     5.1850 c3         1 6TL       0.147800
     10 C12         -5.5970    -2.7190     5.7840 c3         1 6TL       0.146300
     11 C13         -6.0470    -0.6930     4.5390 c3         1 6TL       0.146300
     12 C14         -4.6400    -0.7480     3.9400 c3         1 6TL       0.147800
     13 C15         -7.8130    -2.0510     5.3190 ca         1 6TL       0.021600
     14 C16         -8.1100    -1.4250     6.5220 ca         1 6TL      -0.133000
     15 C19        -10.1390    -2.6530     5.0770 ca         1 6TL      -0.086000
     16 C20         -8.8350    -2.6700     4.5900 cp         1 6TL      -0.014000
     17 C21         -8.5300    -3.3410     3.3020 cp         1 6TL      -0.149300
     18 C22         -8.9760    -4.6410     3.0580 ca         1 6TL       0.000000
     19 C24         -7.9170    -4.4950     0.9010 ca         1 6TL       0.416200
     20 C27         -9.2400    -8.5190     0.0190 c3         1 6TL       0.051000
     21 C30         -7.2960   -10.9410    -3.0620 c3         1 6TL       0.149300
     22 C31         -7.0900   -11.7980    -4.3360 c3         1 6TL      -0.028400
     23 C32         -8.3410   -12.7040    -4.3500 c3         1 6TL      -0.028400
     24 C33         -9.3840   -11.9640    -3.4930 c3         1 6TL       0.149300
     25 O           -9.7530    -7.2310     2.3320 o          1 6TL      -0.651100
     26 N5          -8.7980    -7.1570     0.3280 ns         1 6TL      -0.198900
     27 C28         -8.7600    -8.9050    -1.3810 c3         1 6TL      -0.049400
     28 C29         -9.2220   -10.3270    -1.7050 c3         1 6TL       0.160800
     29 C23         -8.6610    -5.2270     1.8290 ca         1 6TL      -0.280900
     30 N4          -7.5210    -3.2680     1.1700 nb         1 6TL      -0.592000
     31 C25         -7.7960    -2.6800     2.3170 ca         1 6TL       0.443200
     32 C18        -10.4180    -2.0280     6.2760 ca         1 6TL      -0.100000
     33 C17         -9.4080    -1.4160     6.9950 ca         1 6TL      -0.088000
     34 N3          -6.5050    -2.0560     4.8370 nh         1 6TL      -0.406000
     35 N2          -3.7320    -1.4110     4.8870 n3         1 6TL      -0.548600
     36 C5          -0.0020     0.0060     2.3900 ca         1 6TL      -0.095800
     37 C6          -0.6940     0.0060     1.1770 ca         1 6TL      -0.045000
     38 N1           1.8050     0.0010     3.7130 na         1 6TL       0.354600
     39 C4           1.4040     0.0000     2.3950 ca         1 6TL      -0.226200
     40 H1          -0.5370    -0.0000    -0.9410 ha         1 6TL       0.102000
     41 H2           1.9240    -0.0050    -0.9410 ha         1 6TL       0.100000
     42 H3           3.1740     0.0000     1.1750 ha         1 6TL       0.098000
     43 H5           0.7430    -0.0040     5.6150 h4         1 6TL       0.141000
     44 H6          -1.8430     0.4510     5.3100 hc         1 6TL       0.021700
     45 H7          -2.4530     0.6050     3.6560 hc         1 6TL       0.021700
     46 H8          -1.7280    -2.0040     5.0400 h1         1 6TL       0.013200
     47 H9          -2.3370    -1.8510     3.3860 h1         1 6TL       0.013200
     48 H10         -3.5150    -3.2360     5.8950 h1         1 6TL       0.018450
     49 H11         -4.2120    -3.3560     4.2700 h1         1 6TL       0.018450
     50 H12         -5.9480    -3.7260     5.9750 h1         1 6TL       0.019200
     51 H13         -5.5710    -2.1580     6.7110 h1         1 6TL       0.019200
     52 H14         -6.0260    -0.1120     5.4540 h1         1 6TL       0.019200
     53 H15         -6.7230    -0.2330     3.8290 h1         1 6TL       0.019200
     54 H16         -4.2900     0.2590     3.7500 h1         1 6TL       0.018450
     55 H17         -4.6650    -1.3080     3.0130 h1         1 6TL       0.018450
     56 H18         -7.3230    -0.9440     7.0910 ha         1 6TL       0.116000
     57 H19        -10.9340    -3.1310     4.5170 ha         1 6TL       0.112000
     58 H20         -9.5510    -5.1810     3.8010 ha         1 6TL       0.135000
     59 H21         -7.6680    -4.9400    -0.0550 h4         1 6TL      -0.025900
     60 H22        -10.3210    -8.5640     0.0550 h1         1 6TL       0.026700
     61 H23         -8.8240    -9.2070     0.7450 h1         1 6TL       0.026700
     62 H24         -6.7560   -10.0050    -3.1410 h1         1 6TL       0.013200
     63 H25         -6.9940   -11.4920    -2.1800 h1         1 6TL       0.013200
     64 H26         -7.0640   -11.1690    -5.2180 hc         1 6TL       0.018700
     65 H27         -6.1880   -12.3930    -4.2540 hc         1 6TL       0.018700
     66 H28         -8.7060   -12.8230    -5.3640 hc         1 6TL       0.018700
     67 H29         -8.1110   -13.6670    -3.9110 hc         1 6TL       0.018700
     68 H30         -9.6470   -12.5660    -2.6320 h1         1 6TL       0.013200
     69 H31        -10.2650   -11.7520    -4.0860 h1         1 6TL       0.013200
     70 H32         -8.2690    -6.6370    -0.3450 hn         1 6TL       0.181500
     71 H33         -9.1750    -8.2170    -2.1080 hc         1 6TL       0.024700
     72 H34         -7.6780    -8.8600    -1.4170 hc         1 6TL       0.024700
     73 H35        -10.3040   -10.3720    -1.6680 h1         1 6TL       0.012700
     74 H36         -8.8070   -11.0160    -0.9780 h1         1 6TL       0.012700
     75 H37         -7.4500    -1.6690     2.4960 h4         1 6TL      -0.006900
     76 H38        -11.4330    -2.0150     6.6540 ha         1 6TL       0.105000
     77 H39         -9.6350    -0.9270     7.9350 ha         1 6TL       0.103000
     78 H41         -1.7770     0.0060     1.1690 ha         1 6TL       0.101000
     79 H42          2.7560    -0.0050     4.0240 hn         1 6TL       0.112700
     80 C26         -9.1070    -6.6010     1.5170 c          1 6TL       0.602700
@<TRIPOS>BOND
     1     1     2 ar  
     2     1    37 ar  
     3     1    40 1   
     4     2     3 ar  
     5     2    41 1   
     6     3    39 ar  
     7     3    42 1   
     8     4    21 1   
     9     4    24 1   
    10     4    28 1   
    11     5     6 2   
    12     5     7 1   
    13     5    36 1   
    14     6    38 1   
    15     6    43 1   
    16     7     8 1   
    17     7    44 1   
    18     7    45 1   
    19     8    35 1   
    20     8    46 1   
    21     8    47 1   
    22     9    10 1   
    23     9    35 1   
    24     9    48 1   
    25     9    49 1   
    26    10    34 1   
    27    10    50 1   
    28    10    51 1   
    29    11    12 1   
    30    11    34 1   
    31    11    52 1   
    32    11    53 1   
    33    12    35 1   
    34    12    54 1   
    35    12    55 1   
    36    13    14 ar  
    37    13    16 ar  
    38    13    34 1   
    39    14    33 ar  
    40    14    56 1   
    41    15    16 ar  
    42    15    32 ar  
    43    15    57 1   
    44    16    17 1   
    45    17    18 ar  
    46    17    31 ar  
    47    18    29 ar  
    48    18    58 1   
    49    19    29 ar  
    50    19    30 ar  
    51    19    59 1   
    52    20    26 1   
    53    20    27 1   
    54    20    60 1   
    55    20    61 1   
    56    21    22 1   
    57    21    62 1   
    58    21    63 1   
    59    22    23 1   
    60    22    64 1   
    61    22    65 1   
    62    23    24 1   
    63    23    66 1   
    64    23    67 1   
    65    24    68 1   
    66    24    69 1   
    67    25    80 2   
    68    26    70 1   
    69    26    80 1   
    70    27    28 1   
    71    27    71 1   
    72    27    72 1   
    73    28    73 1   
    74    28    74 1   
    75    29    80 1   
    76    30    31 ar  
    77    31    75 1   
    78    32    33 ar  
    79    32    76 1   
    80    33    77 1   
    81    36    37 ar  
    82    36    39 ar  
    83    37    78 1   
    84    38    39 1   
    85    38    79 1   
@<TRIPOS>SUBSTRUCTURE
     1 6TL         1 TEMP              0 ****  ****    0 ROOT
