@<TRIPOS>MOLECULE
molecule
   79    84     1     0     0
SMALL
bcc


@<TRIPOS>ATOM
      1 C1           0.0000     0.0000     0.0000 ca         1 6TM      -0.138000
      2 C2           1.3840     0.0000     0.0000 ca         1 6TM      -0.109000
      3 C3           2.0830     0.0000     1.1910 ca         1 6TM      -0.171000
      4 C7          -0.7450     0.0130     3.6830 cp         1 6TM       0.522800
      5 C8          -2.1500     0.0190     3.6430 ca         1 6TM      -0.255300
      6 C9          -2.8780     0.0260     4.8200 ca         1 6TM      -0.035600
      7 C10         -2.1230     0.0270     6.0770 ca         1 6TM      -0.293300
      8 C11         -2.4530     0.0320     7.4120 cc         1 6TM      -0.073100
      9 C14         -0.6520     0.0200     6.0040 ca         1 6TM       0.346300
     10 C16         -4.3570     0.0330     4.8110 c          1 6TM       0.672700
     11 O17         -4.9710     0.0400     5.8590 o          1 6TM      -0.612100
     12 N18         -5.0230     0.0330     3.6390 ns         1 6TM      -0.579900
     13 C19         -6.4870     0.0400     3.6300 c3         1 6TM       0.110000
     14 C20         -6.9890     0.0390     2.1830 c3         1 6TM      -0.100400
     15 C21         -8.5180     0.0460     2.1740 c3         1 6TM       0.157800
     16 C24        -10.8620    -0.2560    -0.6640 c3         1 6TM      -0.087900
     17 C31          3.5800     1.2280     5.1170 c3         1 6TM       0.161300
     18 C32          2.8880     1.2320     3.7500 c3         1 6TM       0.176300
     19 C33          5.1780     0.0390     6.4940 c3         1 6TM       0.166800
     20 C34          6.1710     1.2030     6.5050 c3         1 6TM      -0.038100
     21 C35          6.9310     1.2020     7.8060 ca         1 6TM      -0.072300
     22 C6          -0.6960     0.0060     1.1920 ca         1 6TM      -0.112000
     23 C36          8.1140     0.4940     7.9160 ca         1 6TM      -0.117000
     24 C37          8.8110     0.4930     9.1090 ca         1 6TM      -0.112000
     25 C40          6.4480     1.9150     8.8880 ca         1 6TM      -0.112000
     26 C5          -0.0030     0.0070     2.4010 cp         1 6TM      -0.137500
     27 C4           1.3980     0.0010     2.3980 ca         1 6TM       0.131600
     28 C38          8.3270     1.2000    10.1940 ca         1 6TM       0.025400
     29 C39          7.1450     1.9140    10.0830 ca         1 6TM       0.032400
     30 C25         -9.9650    -1.5060    -0.8130 c3         1 6TM      -0.087900
     31 C23        -10.4630     0.2920     0.7290 c3         1 6TM       0.144300
     32 C26         -8.7890    -1.2760     0.1540 c3         1 6TM       0.144300
     33 C28          2.9570    -1.1880     3.7100 c3         1 6TM       0.176300
     34 C29          3.6480    -1.1920     5.0760 c3         1 6TM       0.161300
     35 N12         -1.3130     0.0290     8.1190 na         1 6TM       0.020800
     36 N15         -0.0590     0.0190     4.8030 nb         1 6TM      -0.606000
     37 N13         -0.2140     0.0250     7.2520 nc         1 6TM      -0.259400
     38 N27          2.1000     0.0010     3.6010 nh         1 6TM      -0.588000
     39 N22         -8.9990     0.0440     0.7860 n3         1 6TM      -0.706600
     40 N30          4.4380     0.0390     5.2250 n3         1 6TM      -0.738600
     41 Cl1          9.2020     1.1990    11.6940 cl         1 6TM      -0.090400
     42 Cl2          6.5400     2.8090    11.4420 cl         1 6TM      -0.089400
     43 H1          -0.5390    -0.0000    -0.9390 ha         1 6TM       0.132000
     44 H2           1.9230    -0.0030    -0.9400 ha         1 6TM       0.131000
     45 H3           3.1660    -0.0020     1.1840 ha         1 6TM       0.140000
     46 H4          -2.6640     0.0180     2.6900 ha         1 6TM       0.133000
     47 H5          -3.4560     0.0360     7.8210 h4         1 6TM       0.200000
     48 H6          -4.5170     0.0690     2.7760 hn         1 6TM       0.317500
     49 H7          -6.8560    -0.8410     4.1410 h1         1 6TM       0.054200
     50 H8          -6.8470     0.9280     4.1360 h1         1 6TM       0.054200
     51 H9          -6.6200     0.9200     1.6730 hc         1 6TM       0.053700
     52 H10         -6.6280    -0.8490     1.6770 hc         1 6TM       0.053700
     53 H11         -8.8870    -0.8360     2.6850 h1         1 6TM       0.038200
     54 H12         -8.8780     0.9340     2.6800 h1         1 6TM       0.038200
     55 H13        -11.9090    -0.5330    -0.6790 hc         1 6TM       0.049700
     56 H14        -10.6380     0.4690    -1.4370 hc         1 6TM       0.049700
     57 H15          2.8320     1.2050     5.8990 h1         1 6TM       0.047450
     58 H16          4.1870     2.1200     5.2150 h1         1 6TM       0.047450
     59 H17          2.2320     2.0910     3.6810 h1         1 6TM       0.040200
     60 H18          3.6360     1.2770     2.9680 h1         1 6TM       0.040200
     61 H19          4.4830     0.1490     7.3180 h1         1 6TM       0.039700
     62 H20          5.7160    -0.8960     6.5980 h1         1 6TM       0.039700
     63 H21          5.6340     2.1380     6.4010 hc         1 6TM       0.059700
     64 H22          6.8660     1.0930     5.6810 hc         1 6TM       0.059700
     65 H23         -1.7790     0.0060     1.1870 ha         1 6TM       0.129000
     66 H24          8.4940    -0.0600     7.0670 ha         1 6TM       0.143000
     67 H25          9.7360    -0.0640     9.1950 ha         1 6TM       0.149000
     68 H26          5.5240     2.4730     8.8000 ha         1 6TM       0.151000
     69 H27        -10.5140    -2.3960    -0.5310 hc         1 6TM       0.049700
     70 H28         -9.6020    -1.5870    -1.8310 hc         1 6TM       0.049700
     71 H29        -10.6720     1.3530     0.7950 h1         1 6TM       0.041700
     72 H30        -10.9730    -0.2550     1.5130 h1         1 6TM       0.041700
     73 H31         -7.8550    -1.2770    -0.3950 h1         1 6TM       0.041700
     74 H32         -8.7790    -2.0500     0.9120 h1         1 6TM       0.041700
     75 H33          3.7060    -1.1650     2.9270 h1         1 6TM       0.040200
     76 H34          2.3510    -2.0800     3.6110 h1         1 6TM       0.040200
     77 H35          4.3040    -2.0510     5.1450 h1         1 6TM       0.047450
     78 H36          2.9000    -1.2370     5.8580 h1         1 6TM       0.047450
     79 H37         -1.2560     0.0300     9.1190 hn         1 6TM       0.336700
@<TRIPOS>BOND
     1    34    33 1
     2    34    40 1
     3    37    35 1
     4    37     9 2
     5    35     8 1
     6    33    38 1
     7    20    19 1
     8    20    21 1
     9    19    40 1
    10     9    36 ar
    11     9     7 ar
    12    36     4 ar
    13    25    21 ar
    14    25    29 ar
    15    40    17 1
    16    38    27 1
    17    38    18 1
    18     8     7 2
    19    42    29 1
    20    21    23 ar
    21    27     3 ar
    22    27    26 ar
    23     3     2 ar
    24     7     6 ar
    25    26     4 1
    26    26    22 ar
    27     4     5 ar
    28     2     1 ar
    29    29    28 ar
    30    17    18 1
    31    22     1 ar
    32     6     5 ar
    33     6    10 1
    34    23    24 ar
    35    28    24 ar
    36    28    41 1
    37    10    11 2
    38    10    12 1
    39    12    13 1
    40    13    14 1
    41    14    15 1
    42    15    39 1
    43    39    31 1
    44    39    32 1
    45    31    16 1
    46    32    30 1
    47    16    30 1
    48     1    43 1
    49     2    44 1
    50     3    45 1
    51     5    46 1
    52     8    47 1
    53    12    48 1
    54    13    49 1
    55    13    50 1
    56    14    51 1
    57    14    52 1
    58    15    53 1
    59    15    54 1
    60    16    55 1
    61    16    56 1
    62    17    57 1
    63    17    58 1
    64    18    59 1
    65    18    60 1
    66    19    61 1
    67    19    62 1
    68    20    63 1
    69    20    64 1
    70    22    65 1
    71    23    66 1
    72    24    67 1
    73    25    68 1
    74    30    69 1
    75    30    70 1
    76    31    71 1
    77    31    72 1
    78    32    73 1
    79    32    74 1
    80    33    75 1
    81    33    76 1
    82    34    77 1
    83    34    78 1
    84    35    79 1
@<TRIPOS>SUBSTRUCTURE
     1 6TM         1 TEMP              0 ****  ****    0 ROOT
