@<TRIPOS>MOLECULE
6TN
   49    51     1     0     0
SMALL
bcc


@<TRIPOS>ATOM
      1 C10          0.0000     0.0000     0.0000 c          1 6TN       0.634700
      2 C13         -1.5660     1.9350     0.0080 ca         1 6TN      -0.031000
      3 C15         -3.0880     3.9110     0.0970 c3         1 6TN       0.007600
      4 C17         -1.9470     4.9260     0.0060 c3         1 6TN       0.006900
      5 C20         -2.9450     0.8770    -2.1670 ca         1 6TN      -0.275000
      6 C21         -1.8520     0.1970    -1.6570 ca         1 6TN       0.230100
      7 C24          3.4490     0.0000     0.0000 c3         1 6TN      -0.093700
      8 C01          7.8930     4.4770    -3.3580 c3         1 6TN      -0.001100
      9 C02          6.4670     4.3740    -2.8130 c3         1 6TN       0.214400
     10 O03          6.2720     3.0870    -2.2270 os         1 6TN      -0.408100
     11 C04          5.0530     2.8310    -1.6940 ca         1 6TN       0.839300
     12 N05          4.1200     3.7670    -1.7400 nb         1 6TN      -0.707000
     13 C06          2.9220     3.5470    -1.2230 ca         1 6TN       0.491200
     14 C07          2.6520     2.3200    -0.6320 ca         1 6TN      -0.397900
     15 C08          1.2880     2.0900    -0.0360 c3         1 6TN       0.118300
     16 N09          1.1330     0.6680     0.2960 n          1 6TN      -0.162800
     17 O11         -0.0700    -1.1980     0.1990 o          1 6TN      -0.635100
     18 C12         -1.1560     0.7220    -0.5570 ca         1 6TN      -0.218600
     19 C14         -2.6500     2.6040    -0.5120 ca         1 6TN      -0.153300
     20 C16         -3.4580     3.6900     1.5650 c3         1 6TN       0.006900
     21 C18         -3.3420     2.0790    -1.6000 ca         1 6TN       0.199100
     22 O19         -4.4130     2.7430    -2.1030 oh         1 6TN      -0.481100
     23 C23          2.2620     0.0000     0.9630 c3         1 6TN       0.054000
     24 C25          3.6440     1.3640    -0.6040 ca         1 6TN       0.467600
     25 N26          4.8270     1.6530    -1.1380 nb         1 6TN      -0.638000
     26 H1          -1.0770     2.3090     0.8990 ha         1 6TN       0.119000
     27 H2          -3.9350     4.2670    -0.4770 hc         1 6TN       0.046700
     28 H3          -1.4410     4.8150    -0.9460 hc         1 6TN       0.004033
     29 H4          -2.3490     5.9280     0.0880 hc         1 6TN       0.004033
     30 H5          -1.2440     4.7510     0.8110 hc         1 6TN       0.004033
     31 H6          -3.4860     0.4740    -3.0140 ha         1 6TN       0.123000
     32 H7           4.3450    -0.2810     0.5400 hc         1 6TN       0.045200
     33 H8           3.2650    -0.7160    -0.7910 hc         1 6TN       0.045200
     34 H9           8.0400     5.4540    -3.8030 hc         1 6TN       0.011033
     35 H10          8.0490     3.7120    -4.1080 hc         1 6TN       0.011033
     36 H11          8.6000     4.3400    -2.5480 hc         1 6TN       0.011033
     37 H12          6.3110     5.1400    -2.0620 h1         1 6TN       0.007200
     38 H13          5.7610     4.5130    -3.6220 h1         1 6TN       0.007200
     39 H14          2.1600     4.3160    -1.2630 h4         1 6TN      -0.014900
     40 H15          1.1850     2.6830     0.8650 h1         1 6TN       0.034700
     41 H16          0.5290     2.3770    -0.7530 h1         1 6TN       0.034700
     42 H17         -2.5540     3.6190     2.1590 hc         1 6TN       0.004033
     43 H18         -4.0250     2.7710     1.6600 hc         1 6TN       0.004033
     44 H19         -4.0570     4.5210     1.9160 hc         1 6TN       0.004033
     45 H20         -5.0810     2.1230    -2.3480 ho         1 6TN       0.407000
     46 H21         -2.1950    -1.5550    -2.2850 ho         1 6TN       0.411000
     47 H22          1.9870    -1.0240     1.1840 h1         1 6TN       0.040200
     48 H23          2.5280     0.5580     1.8520 h1         1 6TN       0.040200
     49 O22         -1.4560    -0.9730    -2.2170 oh         1 6TN      -0.472100
@<TRIPOS>BOND
     1     1    16 1   
     2     1    17 2   
     3     1    18 1   
     4     2    18 ar  
     5     2    19 ar  
     6     2    26 1   
     7     3     4 1   
     8     3    19 1   
     9     3    20 1   
    10     3    27 1   
    11     4    28 1   
    12     4    29 1   
    13     4    30 1   
    14     5     6 ar  
    15     5    21 ar  
    16     5    31 1   
    17     6    18 ar  
    18     6    49 1   
    19     7    23 1   
    20     7    24 1   
    21     7    32 1   
    22     7    33 1   
    23     8     9 1   
    24     8    34 1   
    25     8    35 1   
    26     8    36 1   
    27     9    10 1   
    28     9    37 1   
    29     9    38 1   
    30    10    11 1   
    31    11    12 ar  
    32    11    25 ar  
    33    12    13 ar  
    34    13    14 ar  
    35    13    39 1   
    36    14    15 1   
    37    14    24 ar  
    38    15    16 1   
    39    15    40 1   
    40    15    41 1   
    41    16    23 1   
    42    19    21 ar  
    43    20    42 1   
    44    20    43 1   
    45    20    44 1   
    46    21    22 1   
    47    22    45 1   
    48    23    47 1   
    49    23    48 1   
    50    24    25 ar  
    51    46    49 1   
@<TRIPOS>SUBSTRUCTURE
     1 6TN         1 TEMP              0 ****  ****    0 ROOT
