@<TRIPOS>MOLECULE
molecule
   38    39     1     0     0
SMALL
bcc


@<TRIPOS>ATOM
      1 C10          0.0000     0.0000     0.0000 c3         1 6TO       0.121100
      2 C13          1.3090     0.3270     2.4600 c2         1 6TO      -0.215200
      3 C15          1.5310     0.0000     0.0000 c3         1 6TO      -0.033200
      4 C01         -2.0830     5.5380     9.3990 ca         1 6TO       0.103100
      5 C02         -2.2120     4.2200     9.8220 ca         1 6TO      -0.157000
      6 C03         -1.9730     3.1860     8.9450 ca         1 6TO      -0.097500
      7 C04         -1.5980     3.4630     7.6250 ca         1 6TO      -0.073800
      8 C05         -1.4700     4.7930     7.2040 ca         1 6TO      -0.097500
      9 C06         -1.7170     5.8190     8.0870 ca         1 6TO      -0.157000
     10 C07         -1.3410     2.3640     6.6860 ce         1 6TO      -0.045200
     11 C08         -0.9790     2.6350     5.4120 cf         1 6TO      -0.203200
     12 C09         -0.7300     1.5730     4.5050 c          1 6TO       0.635300
     13 O02         -0.8430     0.4190     4.8740 o          1 6TO      -0.558000
     14 O03         -0.3700     1.8440     3.2340 os         1 6TO      -0.407900
     15 C11         -0.4910     1.1100     0.9370 c3         1 6TO       0.146100
     16 C12         -0.1350     0.7260     2.3740 c3         1 6TO       0.193300
     17 C14          2.0470     0.0000     1.4090 ce         1 6TO      -0.106400
     18 O04          0.1480     2.3420     0.5980 oh         1 6TO      -0.571800
     19 O05         -0.4790    -1.2650     0.4620 oh         1 6TO      -0.592800
     20 C16          3.4480    -0.3800     1.6380 c          1 6TO       0.880800
     21 O06          3.8990    -0.3870     2.7660 o          1 6TO      -0.843800
     22 O07          4.2330    -0.7190     0.5960 o          1 6TO      -0.843800
     23 H1          -0.3620     0.1870    -1.0040 h1         1 6TO       0.012700
     24 H2           1.7760     0.3080     3.4380 ha         1 6TO       0.158000
     25 H4           1.8880    -0.8860    -0.5110 hc         1 6TO       0.070200
     26 H5           1.8890     0.8850    -0.5120 hc         1 6TO       0.070200
     27 H7          -2.0730     2.1590     9.2760 ha         1 6TO       0.142500
     28 H8          -1.1820     5.0130     6.1830 ha         1 6TO       0.142500
     29 H9          -1.6180     6.8480     7.7620 ha         1 6TO       0.137500
     30 H10         -1.5350     6.7450    10.7500 ho         1 6TO       0.417000
     31 H11         -1.4410     1.3370     7.0140 ha         1 6TO       0.160000
     32 H12         -0.8790     3.6620     5.0840 ha         1 6TO       0.140000
     33 H13         -1.5660     1.2130     0.8450 h1         1 6TO       0.013700
     34 H14         -0.7540    -0.1070     2.6840 h1         1 6TO       0.080700
     35 H16         -0.4670     2.9050     0.1570 ho         1 6TO       0.382000
     36 H17         -0.9070    -1.7160    -0.2470 ho         1 6TO       0.386000
     37 O01         -2.3220     6.5540    10.2660 oh         1 6TO      -0.526100
     38 H6          -2.5000     4.0060    10.8440 ha         1 6TO       0.137500
@<TRIPOS>BOND
     1    21    20 1   
     2    13    12 2   
     3    10     7 1   
     4    10    11 2   
     5     8     7 ar  
     6     8     9 ar  
     7     7     6 ar  
     8    12    11 1   
     9    12    14 1   
    10     9     4 ar  
    11     6     5 ar  
    12     4     5 ar  
    13     4    37 1   
    14    20    22 1   
    15    20    17 1   
    16    14    16 1   
    17     2    16 1   
    18     2    17 2   
    19    16    15 1   
    20    17     3 1   
    21     3     1 1   
    22    15     1 1   
    23    15    18 1   
    24     1    19 1   
    25     1    23 1   
    26     2    24 1   
    27     3    25 1   
    28     3    26 1   
    29     5    38 1   
    30     6    27 1   
    31     8    28 1   
    32     9    29 1   
    33    37    30 1   
    34    10    31 1   
    35    11    32 1   
    36    15    33 1   
    37    16    34 1   
    38    18    35 1   
    39    19    36 1   
@<TRIPOS>SUBSTRUCTURE
     1 6TO         1 TEMP              0 ****  ****    0 ROOT
