@<TRIPOS>MOLECULE
6TP
   50    52     1     0     0
SMALL
bcc


@<TRIPOS>ATOM
      1 C1           0.0000     0.0000     0.0000 c3         1 6TP       0.186200
      2 N1          -6.4160    -5.1910    -7.6590 nb         1 6TP      -0.683000
      3 O1          -0.6830     2.6920    -2.6430 o          1 6TP      -0.589800
      4 S1          -2.2980    -4.1310    -6.1960 ss         1 6TP      -0.119500
      5 C2          -0.9530    -1.8130    -4.4860 ca         1 6TP      -0.130000
      6 O2          -1.9490    -6.6090    -7.6770 o          1 6TP      -0.644100
      7 S2          -0.1150     1.4400    -2.2860 sy         1 6TP       1.043200
      8 C3           1.5300     0.0000     0.0000 c3         1 6TP      -0.028100
      9 N3          -3.4190    -7.8770    -8.7570 ns         1 6TP      -0.200900
     10 O3           1.2690     1.1480    -2.4220 o          1 6TP      -0.589800
     11 C4          -0.5100     0.0000     1.4430 c3         1 6TP      -0.028100
     12 N4          -0.4890     1.1950    -0.6910 n7         1 6TP      -0.572100
     13 C5          -2.3410     0.3340    -3.4100 ca         1 6TP       0.007500
     14 C6          -0.5090    -1.2500    -0.7200 c3         1 6TP      -0.028100
     15 C7          -4.3650    -2.7050    -5.7060 cc         1 6TP      -0.069200
     16 C8          -4.8530    -3.8170    -6.4960 ca         1 6TP      -0.288100
     17 C9          -3.8280    -4.6980    -6.8490 ca         1 6TP       0.163900
     18 C10         -6.1690    -4.1140    -6.9370 ca         1 6TP       0.569200
     19 C11         -4.1500    -5.8390    -7.6250 ca         1 6TP      -0.318900
     20 C12         -3.1020    -6.7950    -8.0180 c          1 6TP       0.606700
     21 C13         -5.4710    -6.0430    -8.0090 ca         1 6TP       0.496200
     22 C14         -3.0540    -2.7270    -5.4650 cd         1 6TP       0.021400
     23 C15         -2.3760    -8.8280    -9.1480 c3         1 6TP       0.089300
     24 C16         -2.3310    -1.7010    -4.6820 ca         1 6TP       0.044200
     25 C17         -0.2840    -0.8530    -3.7550 ca         1 6TP       0.007500
     26 C18         -0.9760     0.2190    -3.2180 ca         1 6TP      -0.158500
     27 C19         -3.0220    -0.6190    -4.1390 ca         1 6TP      -0.130000
     28 H2          -0.4100    -2.6510    -4.9060 ha         1 6TP       0.119500
     29 HN2         -8.1360    -3.4630    -6.9230 hn         1 6TP       0.274300
     30 HN2A        -7.0310    -2.4540    -6.0460 hn         1 6TP       0.274300
     31 H3           1.8920    -0.5890     0.8340 hc         1 6TP       0.017478
     32 H3A          1.8920    -0.4280    -0.9270 hc         1 6TP       0.017478
     33 H3B          1.8920     1.0170     0.0930 hc         1 6TP       0.017478
     34 HN3         -4.3660    -8.0250    -9.0460 hn         1 6TP       0.173500
     35 H4          -0.1430     0.8810     1.9560 hc         1 6TP       0.017478
     36 H4A         -1.5930     0.0070     1.4430 hc         1 6TP       0.017478
     37 H4B         -0.1540    -0.8880     1.9520 hc         1 6TP       0.017478
     38 HN4         -1.0210     1.8790    -0.1910 hn         1 6TP       0.349800
     39 H5          -2.8770     1.1760    -2.9870 ha         1 6TP       0.123500
     40 H6           0.1310    -1.4650    -1.5670 hc         1 6TP       0.017478
     41 H6A         -1.5220    -1.0800    -1.0670 hc         1 6TP       0.017478
     42 H6B         -0.4980    -2.0910    -0.0370 hc         1 6TP       0.017478
     43 H7          -5.0130    -1.9180    -5.3400 ha         1 6TP       0.118000
     44 H13         -5.7270    -6.9120    -8.6030 h4         1 6TP      -0.024900
     45 H15         -1.8990    -9.2260    -8.2610 h1         1 6TP       0.009700
     46 H15A        -2.8200    -9.6390    -9.7130 h1         1 6TP       0.009700
     47 H15B        -1.6380    -8.3240    -9.7600 h1         1 6TP       0.009700
     48 H17          0.7850    -0.9370    -3.6010 ha         1 6TP       0.123500
     49 H19         -4.0910    -0.5270    -4.2880 ha         1 6TP       0.119500
     50 N2          -7.2070    -3.2650    -6.6060 nv         1 6TP      -0.494500
@<TRIPOS>BOND
     1     1     8 1   
     2     1    11 1   
     3     1    12 1   
     4     1    14 1   
     5     2    18 ar  
     6     2    21 ar  
     7     3     7 2   
     8     4    17 1   
     9     4    22 1   
    10     5    24 ar  
    11     5    25 ar  
    12     5    28 1   
    13     6    20 2   
    14     7    10 2   
    15     7    12 1   
    16     7    26 1   
    17     8    31 1   
    18     8    32 1   
    19     8    33 1   
    20     9    20 1   
    21     9    23 1   
    22     9    34 1   
    23    11    35 1   
    24    11    36 1   
    25    11    37 1   
    26    12    38 1   
    27    13    26 ar  
    28    13    27 ar  
    29    13    39 1   
    30    14    40 1   
    31    14    41 1   
    32    14    42 1   
    33    15    16 1   
    34    15    22 2   
    35    15    43 1   
    36    16    17 ar  
    37    16    18 ar  
    38    17    19 ar  
    39    18    50 1   
    40    19    20 1   
    41    19    21 ar  
    42    21    44 1   
    43    22    24 1   
    44    23    45 1   
    45    23    46 1   
    46    23    47 1   
    47    24    27 ar  
    48    25    26 ar  
    49    25    48 1   
    50    27    49 1   
    51    29    50 1   
    52    30    50 1   
@<TRIPOS>SUBSTRUCTURE
     1 6TP         1 TEMP              0 ****  ****    0 ROOT
