@<TRIPOS>MOLECULE
molecule
   50    52     1     0     0
SMALL
bcc


@<TRIPOS>ATOM
      1 C1           0.0000     0.0000     0.0000 c3         1 6TP       0.244200
      2 N1          -6.4160    -5.1910    -7.6590 nb         1 6TP      -0.789000
      3 O1          -0.6830     2.6920    -2.6430 o          1 6TP      -0.639300
      4 S1          -2.2980    -4.1310    -6.1960 ss         1 6TP       0.043500
      5 C2          -0.9530    -1.8130    -4.4860 ca         1 6TP      -0.145500
      6 O2          -1.9490    -6.6090    -7.6770 o          1 6TP      -0.616100
      7 S2          -0.1150     1.4400    -2.2860 sy         1 6TP       1.428200
      8 C3           1.5300     0.0000     0.0000 c3         1 6TP      -0.106100
      9 N3          -3.4190    -7.8770    -8.7570 ns         1 6TP      -0.586900
     10 O3           1.2690     1.1480    -2.4220 o          1 6TP      -0.639300
     11 C4          -0.5100     0.0000     1.4430 c3         1 6TP      -0.106100
     12 N4          -0.4890     1.1950    -0.6910 n7         1 6TP      -0.908100
     13 C5          -2.3410     0.3340    -3.4100 ca         1 6TP      -0.024500
     14 C6          -0.5090    -1.2500    -0.7200 c3         1 6TP      -0.106100
     15 C7          -4.3650    -2.7050    -5.7060 cc         1 6TP      -0.097200
     16 C8          -4.8530    -3.8170    -6.4960 ca         1 6TP      -0.279100
     17 C9          -3.8280    -4.6980    -6.8490 ca         1 6TP       0.084900
     18 C10         -6.1690    -4.1140    -6.9370 ca         1 6TP       0.769200
     19 C11         -4.1500    -5.8390    -7.6250 ca         1 6TP      -0.314900
     20 C12         -3.1020    -6.7950    -8.0180 c          1 6TP       0.684700
     21 C13         -5.4710    -6.0430    -8.0090 ca         1 6TP       0.514200
     22 C14         -3.0540    -2.7270    -5.4650 cd         1 6TP      -0.039600
     23 C15         -2.3760    -8.8280    -9.1480 c3         1 6TP       0.105300
     24 C16         -2.3310    -1.7010    -4.6820 ca         1 6TP       0.039200
     25 C17         -0.2840    -0.8530    -3.7550 ca         1 6TP      -0.024500
     26 C18         -0.9760     0.2190    -3.2180 ca         1 6TP      -0.314500
     27 C19         -3.0220    -0.6190    -4.1390 ca         1 6TP      -0.145500
     28 H2          -0.4100    -2.6510    -4.9060 ha         1 6TP       0.140000
     29 HN2         -8.1360    -3.4630    -6.9230 hn         1 6TP       0.445800
     30 HN2A        -7.0310    -2.4540    -6.0460 hn         1 6TP       0.445800
     31 H3           1.8920    -0.5890     0.8340 hc         1 6TP       0.047144
     32 H3A          1.8920    -0.4280    -0.9270 hc         1 6TP       0.047144
     33 H3B          1.8920     1.0170     0.0930 hc         1 6TP       0.047144
     34 HN3         -4.3660    -8.0250    -9.0460 hn         1 6TP       0.311500
     35 H4          -0.1430     0.8810     1.9560 hc         1 6TP       0.047144
     36 H4A         -1.5930     0.0070     1.4430 hc         1 6TP       0.047144
     37 H4B         -0.1540    -0.8880     1.9520 hc         1 6TP       0.047144
     38 HN4         -1.0210     1.8790    -0.1910 hn         1 6TP       0.453800
     39 H5          -2.8770     1.1760    -2.9870 ha         1 6TP       0.151500
     40 H6           0.1310    -1.4650    -1.5670 hc         1 6TP       0.047144
     41 H6A         -1.5220    -1.0800    -1.0670 hc         1 6TP       0.047144
     42 H6B         -0.4980    -2.0910    -0.0370 hc         1 6TP       0.047144
     43 H7          -5.0130    -1.9180    -5.3400 ha         1 6TP       0.142000
     44 H13         -5.7270    -6.9120    -8.6030 h4         1 6TP       0.020100
     45 H15         -1.8990    -9.2260    -8.2610 h1         1 6TP       0.042700
     46 H15A        -2.8200    -9.6390    -9.7130 h1         1 6TP       0.042700
     47 H15B        -1.6380    -8.3240    -9.7600 h1         1 6TP       0.042700
     48 H17          0.7850    -0.9370    -3.6010 ha         1 6TP       0.151500
     49 H19         -4.0910    -0.5270    -4.2880 ha         1 6TP       0.140000
     50 N2          -7.2070    -3.2650    -6.6060 nv         1 6TP      -0.989500
@<TRIPOS>BOND
     1     1     8 1
     2     1    11 1
     3     1    12 1
     4     1    14 1
     5     2    18 ar
     6     2    21 ar
     7     3     7 2
     8     4    17 1
     9     4    22 1
    10     5    24 ar
    11     5    25 ar
    12    50    18 1
    13     6    20 2
    14     7    10 2
    15     7    12 1
    16     7    26 1
    17     9    20 1
    18     9    23 1
    19    13    26 ar
    20    13    27 ar
    21    15    16 1
    22    15    22 2
    23    16    17 ar
    24    16    18 ar
    25    17    19 ar
    26    19    20 1
    27    19    21 ar
    28    22    24 1
    29    24    27 ar
    30    25    26 ar
    31     5    28 1
    32    50    29 1
    33    50    30 1
    34     8    31 1
    35     8    32 1
    36     8    33 1
    37     9    34 1
    38    11    35 1
    39    11    36 1
    40    11    37 1
    41    12    38 1
    42    13    39 1
    43    14    40 1
    44    14    41 1
    45    14    42 1
    46    15    43 1
    47    21    44 1
    48    23    45 1
    49    23    46 1
    50    23    47 1
    51    25    48 1
    52    27    49 1
@<TRIPOS>SUBSTRUCTURE
     1 6TP         1 TEMP              0 ****  ****    0 ROOT
