@<TRIPOS>MOLECULE
6TS
   76    78     1     0     0
SMALL
bcc


@<TRIPOS>ATOM
      1 C2           0.0000     0.0000     0.0000 c2         1 6TS      -0.367000
      2 C3           1.3820     0.0000     0.0000 c2         1 6TS       0.071000
      3 N4           2.0310     0.0000     1.1550 n2         1 6TS      -0.195000
      4 C5           1.3740    -0.0000     2.3050 c2         1 6TS       0.020000
      5 C7           3.4790    -0.1010     3.4670 c2         1 6TS      -0.062000
      6 C8           4.1670    -0.8030     4.4590 c2         1 6TS      -0.196000
      7 C11          5.6050     0.3830     2.4650 c2         1 6TS       0.120000
      8 C12          6.3790     1.0010     1.4310 c1         1 6TS      -0.138000
      9 C13          7.0170     1.4900     0.5750 c1         1 6TS      -0.133000
     10 C14          7.5980     2.1860    -0.7520 c3         1 6TS       0.043000
     11 C15          9.3920     1.9760    -0.7990 c3         1 6TS       0.014000
     12 C22         13.3890     3.6450    -4.6220 c3         1 6TS      -0.177000
     13 C23         14.9140     4.2050    -4.4450 c2         1 6TS      -0.049000
     14 C24         15.8940     2.8980    -5.4900 c2         1 6TS      -0.135000
     15 C25         16.3350     1.9070    -4.6060 c2         1 6TS      -0.144000
     16 C26         14.9200     0.6890    -4.6340 c2         1 6TS      -0.159000
     17 C27         13.8280     1.0640    -5.4950 c3         1 6TS      -0.131000
     18 C28         12.6880     1.4170    -4.5180 c3         1 6TS      -0.151000
     19 C31         -0.6650     0.0060     1.2290 c2         1 6TS       0.052000
     20 N32         -2.0500     0.0110     1.2790 nu         1 6TS       0.191000
     21 C35         -2.7170     0.8980     4.7850 ca         1 6TS      -0.088000
     22 C36         -4.0030     0.4160     4.9410 ca         1 6TS      -0.101000
     23 C37         -4.6480    -0.2010     3.8860 ca         1 6TS      -0.081000
     24 C38         -4.0040    -0.3400     2.6660 ca         1 6TS      -0.112000
     25 C40         -5.9870    -0.8230     1.4400 c2         1 6TS       0.199000
     26 O41         -6.6060    -0.0760     2.1680 o          1 6TS      -0.385000
     27 C42         -6.7070    -1.5940     0.3640 c3         1 6TS      -0.137000
     28 C43         -8.1980    -1.2560     0.4040 c3         1 6TS      -0.091000
     29 N39         -4.6560    -0.9640     1.5950 ns         1 6TS       0.095000
     30 C34         -2.0670     0.7650     3.5720 ca         1 6TS      -0.118000
     31 C33         -2.7060     0.1470     2.5080 ca         1 6TS      -0.102000
     32 N30          0.0500    -0.0010     2.3500 n2         1 6TS      -0.212000
     33 N6           2.0890    -0.0070     3.4920 nu         1 6TS       0.204000
     34 C9           5.5430    -0.8760     4.4040 c2         1 6TS      -0.041000
     35 N10          6.2160    -0.2950     3.4300 n2         1 6TS      -0.056000
     36 N16          9.8490     2.5920    -1.5640 ns         1 6TS       0.079000
     37 C17         11.3070     2.3940    -2.1110 c2         1 6TS       0.400000
     38 O18         11.8910     1.8730    -1.2690 o          1 6TS      -0.405000
     39 O19         12.0430     2.8360    -2.9980 os         1 6TS      -0.404000
     40 C20         13.0700     2.5730    -3.9920 c3         1 6TS       0.201000
     41 C29          4.2180     0.5070     2.4550 c2         1 6TS      -0.155000
     42 Cl1         -0.8880    -0.0000    -1.4910 cl         1 6TS       0.077000
     43 H44          1.9240    -0.0040    -0.9380 h4         1 6TS       0.127000
     44 H46          3.6170    -1.3350     5.2260 ha         1 6TS       0.116000
     45 H49          7.3580     3.2430    -0.7410 hc         1 6TS       0.046500
     46 H48          7.1570     1.7240    -1.6270 hc         1 6TS       0.046500
     47 H50          9.8040     2.2470     0.1650 h1         1 6TS      -0.021000
     48 H51          9.6200     0.9360    -1.0010 h1         1 6TS      -0.021000
     49 H54         13.2250     3.4660    -5.6780 hc         1 6TS       0.090000
     50 H56         15.0160     5.1970    -4.8690 ha         1 6TS       0.060000
     51 H55         15.2190     4.1810    -3.4060 ha         1 6TS       0.060000
     52 H58         15.2420     2.4610    -6.2370 ha         1 6TS       0.073000
     53 H57         16.7440     3.3710    -5.9660 ha         1 6TS       0.073000
     54 H59         17.3570     1.5520    -4.6570 ha         1 6TS       0.120000
     55 H60         15.1090    -0.3640    -4.4650 ha         1 6TS       0.108000
     56 H61         13.5410     0.2310    -6.1260 hc         1 6TS       0.089500
     57 H62         14.0960     1.9270    -6.0920 hc         1 6TS       0.089500
     58 H64         12.6710     0.7350    -3.6770 hc         1 6TS       0.083500
     59 H63         11.7330     1.4460    -5.0300 hc         1 6TS       0.083500
     60 H66         -2.5800     0.1340     0.4390 hn         1 6TS       0.090000
     61 H68         -2.2160     1.3820     5.6150 ha         1 6TS       0.102000
     62 H69         -4.5100     0.5230     5.8930 ha         1 6TS       0.105000
     63 H70         -5.6560    -0.5770     4.0130 ha         1 6TS       0.137000
     64 H72         -6.3670    -2.6230     0.3680 hc         1 6TS       0.068500
     65 H75         -6.4970    -1.1480    -0.6010 hc         1 6TS       0.068500
     66 H74         -8.7180    -1.8270    -0.3550 hc         1 6TS       0.048667
     67 H73         -8.3340    -0.1970     0.2160 hc         1 6TS       0.048667
     68 H1          -8.5980    -1.5030     1.3800 hc         1 6TS       0.048667
     69 H71         -4.2420    -1.7630     1.1550 hn         1 6TS       0.076000
     70 H67         -1.0590     1.1440     3.4540 ha         1 6TS       0.148000
     71 H45          1.6130     0.1120     4.3640 hn         1 6TS       0.091000
     72 H47          6.0880    -1.4180     5.1680 h4         1 6TS       0.117000
     73 H52          9.3040     3.3380    -1.9480 hn         1 6TS       0.050000
     74 H21         14.0160     2.3380    -3.5190 h1         1 6TS       0.088000
     75 H65          3.7120     1.0580     1.6710 ha         1 6TS       0.156000
     76 H53         12.7120     4.4280    -4.3020 hc         1 6TS       0.090000
@<TRIPOS>BOND
     1     1     2 1   
     2     1    19 1   
     3     1    42 1   
     4     2     3 1   
     5     2    43 1   
     6     3     4 1   
     7     4    32 1   
     8     4    33 1   
     9     5     6 1   
    10     5    33 1   
    11     5    41 1   
    12     6    34 1   
    13     6    44 1   
    14     7     8 1   
    15     7    35 1   
    16     7    41 1   
    17     8     9 1   
    18     9    10 1   
    19    10    11 1   
    20    10    45 1   
    21    10    46 1   
    22    11    36 1   
    23    11    47 1   
    24    11    48 1   
    25    12    13 1   
    26    12    40 1   
    27    12    49 1   
    28    12    76 1   
    29    13    50 1   
    30    13    51 1   
    31    14    15 1   
    32    14    52 1   
    33    14    53 1   
    34    15    16 1   
    35    15    54 1   
    36    16    17 1   
    37    16    55 1   
    38    17    18 1   
    39    17    56 1   
    40    17    57 1   
    41    18    40 1   
    42    18    58 1   
    43    18    59 1   
    44    19    20 1   
    45    19    32 1   
    46    20    31 1   
    47    20    60 1   
    48    21    22 1   
    49    21    30 1   
    50    21    61 1   
    51    22    23 1   
    52    22    62 1   
    53    23    24 1   
    54    23    63 1   
    55    24    29 1   
    56    24    31 1   
    57    25    26 1   
    58    25    27 1   
    59    25    29 1   
    60    27    28 1   
    61    27    64 1   
    62    27    65 1   
    63    28    66 1   
    64    28    67 1   
    65    28    68 1   
    66    29    69 1   
    67    30    31 1   
    68    30    70 1   
    69    33    71 1   
    70    34    35 1   
    71    34    72 1   
    72    36    37 1   
    73    36    73 1   
    74    37    38 1   
    75    37    39 1   
    76    39    40 1   
    77    40    74 1   
    78    41    75 1   
@<TRIPOS>SUBSTRUCTURE
     1 6TS         1 TEMP              0 ****  ****    0 ROOT
