@<TRIPOS>MOLECULE
molecule
   76    79     1     0     0
SMALL
bcc


@<TRIPOS>ATOM
      1 C2           0.0000     0.0000     0.0000 ca         1 6TS      -0.340200
      2 C3           1.3820     0.0000     0.0000 ca         1 6TS       0.538200
      3 N4           2.0310     0.0000     1.1550 nb         1 6TS      -0.811000
      4 C5           1.3740    -0.0000     2.3050 ca         1 6TS       0.969900
      5 C7           3.4790    -0.1010     3.4670 ca         1 6TS       0.183600
      6 C8           4.1670    -0.8030     4.4590 ca         1 6TS      -0.292300
      7 C11          5.6050     0.3830     2.4650 ca         1 6TS       0.572300
      8 C12          6.3790     1.0010     1.4310 cg         1 6TS      -0.239000
      9 C13          7.0170     1.4900     0.5750 c1         1 6TS      -0.084100
     10 C14          7.5980     2.1860    -0.7520 c3         1 6TS      -0.031300
     11 C15          9.3920     1.9760    -0.7990 c3         1 6TS       0.236000
     12 C22         13.3890     3.6450    -4.6220 c3         1 6TS      -0.137400
     13 C23         14.9140     4.2050    -4.4450 c3         1 6TS      -0.055400
     14 C24         15.8940     2.8980    -5.4900 c3         1 6TS      -0.089200
     15 C25         16.3350     1.9070    -4.6060 c2         1 6TS      -0.188200
     16 C26         14.9200     0.6890    -4.6340 c2         1 6TS      -0.204200
     17 C27         13.8280     1.0640    -5.4950 c3         1 6TS      -0.084200
     18 C28         12.6880     1.4170    -4.5180 c3         1 6TS      -0.121400
     19 C31         -0.6650     0.0060     1.2290 ca         1 6TS       0.766200
     20 N32         -2.0500     0.0110     1.2790 nu         1 6TS      -0.746300
     21 C35         -2.7170     0.8980     4.7850 ca         1 6TS      -0.125000
     22 C36         -4.0030     0.4160     4.9410 ca         1 6TS      -0.133000
     23 C37         -4.6480    -0.2010     3.8860 ca         1 6TS      -0.109000
     24 C38         -4.0040    -0.3400     2.6660 ca         1 6TS       0.016600
     25 C40         -5.9870    -0.8230     1.4400 c          1 6TS       0.647100
     26 O41         -6.6060    -0.0760     2.1680 o          1 6TS      -0.588100
     27 C42         -6.7070    -1.5940     0.3640 c3         1 6TS      -0.168400
     28 C43         -8.1980    -1.2560     0.4040 c3         1 6TS      -0.073100
     29 N39         -4.6560    -0.9640     1.5950 ns         1 6TS      -0.475100
     30 C34         -2.0670     0.7650     3.5720 ca         1 6TS      -0.129000
     31 C33         -2.7060     0.1470     2.5080 ca         1 6TS       0.127600
     32 N30          0.0500    -0.0010     2.3500 nb         1 6TS      -0.841000
     33 N6           2.0890    -0.0070     3.4920 nu         1 6TS      -0.748300
     34 C9           5.5430    -0.8760     4.4040 ca         1 6TS       0.438200
     35 N10          6.2160    -0.2950     3.4300 nb         1 6TS      -0.689000
     36 N16          9.8490     2.5920    -1.5640 ns         1 6TS      -0.549900
     37 C17         11.3070     2.3940    -2.1110 c          1 6TS       0.822100
     38 O18         11.8910     1.8730    -1.2690 o          1 6TS      -0.543000
     39 O19         12.0430     2.8360    -2.9980 os         1 6TS      -0.599900
     40 C20         13.0700     2.5730    -3.9920 c3         1 6TS       0.323100
     41 C29          4.2180     0.5070     2.4550 ca         1 6TS      -0.233300
     42 Cl1         -0.8880    -0.0000    -1.4910 cl         1 6TS      -0.101400
     43 H44          1.9240    -0.0040    -0.9380 h4         1 6TS       0.044100
     44 H46          3.6170    -1.3350     5.2260 ha         1 6TS       0.139000
     45 H49          7.3580     3.2430    -0.7410 hc         1 6TS       0.053200
     46 H48          7.1570     1.7240    -1.6270 hc         1 6TS       0.053200
     47 H50          9.8040     2.2470     0.1650 h1         1 6TS      -0.024800
     48 H51          9.6200     0.9360    -1.0010 h1         1 6TS      -0.024800
     49 H54         13.2250     3.4660    -5.6780 hc         1 6TS       0.077200
     50 H56         15.0160     5.1970    -4.8690 hc         1 6TS       0.062200
     51 H55         15.2190     4.1810    -3.4060 hc         1 6TS       0.062200
     52 H58         15.2420     2.4610    -6.2370 hc         1 6TS       0.056700
     53 H57         16.7440     3.3710    -5.9660 hc         1 6TS       0.056700
     54 H59         17.3570     1.5520    -4.6570 ha         1 6TS       0.155000
     55 H60         15.1090    -0.3640    -4.4650 ha         1 6TS       0.143000
     56 H61         13.5410     0.2310    -6.1260 hc         1 6TS       0.073200
     57 H62         14.0960     1.9270    -6.0920 hc         1 6TS       0.073200
     58 H64         12.6710     0.7350    -3.6770 hc         1 6TS       0.072200
     59 H63         11.7330     1.4460    -5.0300 hc         1 6TS       0.072200
     60 H66         -2.5800     0.1340     0.4390 hn         1 6TS       0.469800
     61 H68         -2.2160     1.3820     5.6150 ha         1 6TS       0.131000
     62 H69         -4.5100     0.5230     5.8930 ha         1 6TS       0.134000
     63 H70         -5.6560    -0.5770     4.0130 ha         1 6TS       0.160000
     64 H72         -6.3670    -2.6230     0.3680 hc         1 6TS       0.062700
     65 H75         -6.4970    -1.1480    -0.6010 hc         1 6TS       0.062700
     66 H74         -8.7180    -1.8270    -0.3550 hc         1 6TS       0.045033
     67 H73         -8.3340    -0.1970     0.2160 hc         1 6TS       0.045033
     68 H1          -8.5980    -1.5030     1.3800 hc         1 6TS       0.045033
     69 H71         -4.2420    -1.7630     1.1550 hn         1 6TS       0.317500
     70 H67         -1.0590     1.1440     3.4540 ha         1 6TS       0.169000
     71 H45          1.6130     0.1120     4.3640 hn         1 6TS       0.471800
     72 H47          6.0880    -1.4180     5.1680 h4         1 6TS       0.026100
     73 H52          9.3040     3.3380    -1.9480 hn         1 6TS       0.278500
     74 H21         14.0160     2.3380    -3.5190 h1         1 6TS       0.070700
     75 H65          3.7120     1.0580     1.6710 ha         1 6TS       0.176000
     76 H53         12.7120     4.4280    -4.3020 hc         1 6TS       0.077200
@<TRIPOS>BOND
     1    38    37 2   
     2    10     9 1   
     3    10    11 1   
     4     9     8 3   
     5    17    18 1   
     6    17    16 1   
     7    37    36 1   
     8    37    39 1   
     9    11    36 1   
    10    35    34 ar  
    11    35     7 ar  
    12     8     7 1   
    13    18    40 1   
    14    40    39 1   
    15    40    12 1   
    16    34     6 ar  
    17     7    41 ar  
    18    16    15 2   
    19    12    13 1   
    20     6     5 ar  
    21    41     5 ar  
    22     5    33 1   
    23    15    14 1   
    24    33     4 1   
    25    14    13 1   
    26    29    24 1   
    27    29    25 1   
    28    27    28 1   
    29    27    25 1   
    30    23    24 ar  
    31    23    22 ar  
    32     4    32 ar  
    33     4     3 ar  
    34    24    31 ar  
    35    22    21 ar  
    36    32    19 ar  
    37    25    26 2   
    38     3     2 ar  
    39    31    20 1   
    40    31    30 ar  
    41    21    30 ar  
    42    19    20 1   
    43    19     1 ar  
    44     2     1 ar  
    45     1    42 1   
    46     2    43 1   
    47     6    44 1   
    48    10    45 1   
    49    10    46 1   
    50    11    47 1   
    51    11    48 1   
    52    12    76 1   
    53    12    49 1   
    54    13    50 1   
    55    13    51 1   
    56    14    52 1   
    57    14    53 1   
    58    15    54 1   
    59    16    55 1   
    60    17    56 1   
    61    17    57 1   
    62    18    58 1   
    63    18    59 1   
    64    20    60 1   
    65    21    61 1   
    66    22    62 1   
    67    23    63 1   
    68    27    64 1   
    69    27    65 1   
    70    28    66 1   
    71    28    67 1   
    72    28    68 1   
    73    29    69 1   
    74    30    70 1   
    75    33    71 1   
    76    34    72 1   
    77    36    73 1   
    78    40    74 1   
    79    41    75 1   
@<TRIPOS>SUBSTRUCTURE
     1 6TS         1 TEMP              0 ****  ****    0 ROOT
