@<TRIPOS>MOLECULE
6TT
   50    52     1     0     0
SMALL
bcc


@<TRIPOS>ATOM
      1 C1           0.0000     0.0000     0.0000 c3         1 6TT       0.242700
      2 C3           2.0460     0.0000     1.2120 ca         1 6TT       0.052800
      3 C6           3.2000     0.0140     3.6810 ca         1 6TT       0.332200
      4 C7           4.0190     0.0070     2.5580 ca         1 6TT      -0.095700
      5 C11          6.3320    -1.9700    -0.1230 ca         1 6TT       0.589200
      6 C12          7.7020    -2.0470     0.0350 ca         1 6TT      -0.603900
      7 C13          8.2850    -1.4030     1.1290 ca         1 6TT       0.621200
      8 C15         10.2150    -0.9170     2.4910 ca         1 6TT      -0.041400
      9 C16          9.5100    -0.9610     3.6860 ca         1 6TT      -0.090000
     10 C19         12.0360     0.1830     3.6170 ca         1 6TT      -0.089000
     11 C22         13.5450    -0.4120     1.2650 c          1 6TT       0.561100
     12 C24         14.3100    -0.4450    -0.0330 c3         1 6TT      -0.097400
     13 C25         15.8050    -0.5840     0.2590 c3         1 6TT       0.020900
     14 C27          8.5500    -2.8090    -0.9520 c3         1 6TT       0.666200
     15 C31          3.4330     0.0000     1.2950 ca         1 6TT      -0.121000
     16 O23         14.1380    -0.4910     2.3200 o          1 6TT      -0.626100
     17 C20         11.4850    -0.3410     2.4570 ca         1 6TT      -0.108400
     18 C18         11.3220     0.1450     4.7990 ca         1 6TT      -0.091000
     19 C17         10.0650    -0.4300     4.8350 ca         1 6TT      -0.098000
     20 N14          9.6550    -1.4530     1.3260 nu         1 6TT      -0.288300
     21 N26          7.5040    -0.7420     1.9780 nb         1 6TT      -0.753000
     22 C9           6.1940    -0.6920     1.7920 ca         1 6TT       0.759900
     23 N8           5.4100     0.0060     2.6950 nu         1 6TT      -0.259300
     24 N5           1.8880     0.0140     3.5600 nb         1 6TT      -0.524000
     25 C4           1.2980     0.0080     2.3810 ca         1 6TT       0.282200
     26 O2           1.4300     0.0000     0.0000 os         1 6TT      -0.298900
     27 N10          5.6160    -1.2890     0.7600 nb         1 6TT      -0.736000
     28 F28          9.4770    -1.9410    -1.5380 f          1 6TT      -0.210300
     29 F29          9.2270    -3.8370    -0.2880 f          1 6TT      -0.210300
     30 F30          7.7300    -3.3550    -1.9450 f          1 6TT      -0.210300
     31 H33         -0.3610    -0.0030    -1.0210 h1         1 6TT      -0.000300
     32 H34         -0.3610     0.8860     0.5080 h1         1 6TT      -0.000300
     33 H32         -0.3610    -0.8830     0.5130 h1         1 6TT      -0.000300
     34 H36          3.6460     0.0190     4.6690 h4         1 6TT      -0.015900
     35 H38          5.8490    -2.4560    -0.9610 h4         1 6TT      -0.002900
     36 H40          8.5240    -1.4090     3.7170 ha         1 6TT       0.133000
     37 H43         13.0220     0.6330     3.5930 ha         1 6TT       0.148000
     38 H45         13.9780    -1.2880    -0.6260 hc         1 6TT       0.026700
     39 H49         14.1330     0.4730    -0.5800 hc         1 6TT       0.026700
     40 H47         16.1500     0.2890     0.8000 hc         1 6TT       0.010367
     41 H46         16.3490    -0.6690    -0.6740 hc         1 6TT       0.010367
     42 H1          15.9750    -1.4710     0.8580 hc         1 6TT       0.010367
     43 H48          4.0430    -0.0050     0.4000 ha         1 6TT       0.159000
     44 H44         11.7230    -0.1210     0.3930 hn         1 6TT       0.167500
     45 H42         11.7520     0.5570     5.7040 ha         1 6TT       0.106000
     46 H41          9.5120    -0.4620     5.7660 ha         1 6TT       0.104000
     47 H39         10.2400    -1.9140     0.6570 hn         1 6TT       0.295800
     48 H37          5.8400     0.5370     3.4260 hn         1 6TT       0.297800
     49 H35          0.2160     0.0080     2.3240 h4         1 6TT      -0.004900
     50 N21         12.2020    -0.2940     1.2540 ns         1 6TT      -0.047100
@<TRIPOS>BOND
     1     1    26 1   
     2     1    31 1   
     3     1    32 1   
     4     1    33 1   
     5     2    15 ar  
     6     2    25 ar  
     7     2    26 1   
     8     3     4 ar  
     9     3    24 ar  
    10     3    34 1   
    11     4    15 ar  
    12     4    23 1   
    13     5     6 ar  
    14     5    27 ar  
    15     5    35 1   
    16     6     7 ar  
    17     6    14 1   
    18     7    20 1   
    19     7    21 ar  
    20     8     9 ar  
    21     8    17 ar  
    22     8    20 1   
    23     9    19 ar  
    24     9    36 1   
    25    10    17 ar  
    26    10    18 ar  
    27    10    37 1   
    28    11    12 1   
    29    11    16 2   
    30    11    50 1   
    31    12    13 1   
    32    12    38 1   
    33    12    39 1   
    34    13    40 1   
    35    13    41 1   
    36    13    42 1   
    37    14    28 1   
    38    14    29 1   
    39    14    30 1   
    40    15    43 1   
    41    17    50 1   
    42    18    19 ar  
    43    18    45 1   
    44    19    46 1   
    45    20    47 1   
    46    21    22 ar  
    47    22    23 1   
    48    22    27 ar  
    49    23    48 1   
    50    24    25 ar  
    51    25    49 1   
    52    44    50 1   
@<TRIPOS>SUBSTRUCTURE
     1 6TT         1 TEMP              0 ****  ****    0 ROOT
