@<TRIPOS>MOLECULE
molecule
   40    42     1     0     0
SMALL
bcc


@<TRIPOS>ATOM
      1 C10          0.0000     0.0000     0.0000 c          1 6TU       0.700100
      2 C13          0.6760    -0.0020    -2.1830 c3         1 6TU       0.173000
      3 C15         -0.5640     1.2060    -3.9600 c2         1 6TU      -0.173200
      4 C17         -1.8140    -0.0010    -1.6330 ca         1 6TU       0.145600
      5 C20         -4.4870    -0.0130    -2.3610 ca         1 6TU      -0.241000
      6 C21         -3.9670     1.0620    -1.6540 ca         1 6TU       0.142100
      7 C22         -2.6290     1.0690    -1.2890 ca         1 6TU      -0.147000
      8 C24         -6.1350     2.0340    -1.7280 c3         1 6TU       0.132700
      9 C19         -3.6730    -1.0770    -2.7030 ca         1 6TU      -0.092000
     10 C01          3.7820    -0.0010     0.7320 ca         1 6TU      -0.101000
     11 C02          4.1950    -0.0020    -0.5870 ca         1 6TU      -0.140000
     12 C03          3.2630    -0.0020    -1.6110 ca         1 6TU      -0.141000
     13 C04          1.9150    -0.0010    -1.3230 ca         1 6TU      -0.126300
     14 C05          1.4750     0.0000     0.0000 ca         1 6TU      -0.124600
     15 C06          2.4240     0.0000     1.0400 ca         1 6TU      -0.031600
     16 C07          1.9810     0.0000     2.4500 c          1 6TU       0.862200
     17 O08          2.8920    -0.0010     3.4430 o          1 6TU      -0.810300
     18 O09          0.7960     0.0010     2.7140 o          1 6TU      -0.810300
     19 O11         -0.6950     0.0050     0.9980 o          1 6TU      -0.525500
     20 N12         -0.4660    -0.0000    -1.2610 n          1 6TU      -0.427000
     21 C14          0.6440     1.2520    -3.0600 c3         1 6TU      -0.057200
     22 C16         -1.4110     2.2060    -3.9720 c2         1 6TU      -0.221000
     23 C18         -2.3400    -1.0740    -2.3400 ca         1 6TU      -0.180000
     24 O23         -4.7680     2.1080    -1.3200 os         1 6TU      -0.326900
     25 H1           0.6530    -0.8930    -2.7980 h1         1 6TU       0.050700
     26 H2          -0.7330     0.3460    -4.5960 ha         1 6TU       0.116000
     27 H3          -5.5320    -0.0180    -2.6470 ha         1 6TU       0.122000
     28 H4          -2.2210     1.9060    -0.7370 ha         1 6TU       0.163000
     29 H5          -6.6570     2.9250    -1.4030 h1         1 6TU       0.034700
     30 H6          -6.1860     1.9590    -2.8080 h1         1 6TU       0.034700
     31 H7          -6.5980     1.1610    -1.2830 h1         1 6TU       0.034700
     32 H8          -4.0810    -1.9150    -3.2550 ha         1 6TU       0.120000
     33 H9           4.5170    -0.0010     1.5280 ha         1 6TU       0.163000
     34 H10          5.2530    -0.0030    -0.8220 ha         1 6TU       0.111000
     35 H11          3.5940    -0.0020    -2.6430 ha         1 6TU       0.104000
     36 H13          0.5920     2.1320    -2.4300 hc         1 6TU       0.057700
     37 H14          1.5420     1.2930    -3.6630 hc         1 6TU       0.057700
     38 H15         -2.2790     2.1730    -4.6190 ha         1 6TU       0.109500
     39 H16         -1.2420     3.0670    -3.3350 ha         1 6TU       0.109500
     40 H17         -1.7050    -1.9090    -2.6080 ha         1 6TU       0.133000
@<TRIPOS>BOND
     1    18    16 1
     2    10    11 ar
     3    10    15 ar
     4    16    17 1
     5    16    15 1
     6    11    12 ar
     7    15    14 ar
     8    12    13 ar
     9    14    13 ar
    10    14     1 1
    11    13     2 1
    12     3    22 2
    13     3    21 1
    14    19     1 2
    15     1    20 1
    16     2    21 1
    17     2    20 1
    18    20     4 1
    19     4     7 ar
    20     4    23 ar
    21     7     6 ar
    22     8    24 1
    23    23     9 ar
    24     6    24 1
    25     6     5 ar
    26     9     5 ar
    27     2    25 1
    28     3    26 1
    29     5    27 1
    30     7    28 1
    31     8    29 1
    32     8    30 1
    33     8    31 1
    34     9    32 1
    35    10    33 1
    36    11    34 1
    37    12    35 1
    38    21    36 1
    39    21    37 1
    40    22    38 1
    41    22    39 1
    42    23    40 1
@<TRIPOS>SUBSTRUCTURE
     1 6TU         1 TEMP              0 ****  ****    0 ROOT
