@<TRIPOS>MOLECULE
6TU
   40    42     1     0     0
SMALL
bcc


@<TRIPOS>ATOM
      1 C10          0.0000     0.0000     0.0000 c          1 6TU       0.624100
      2 C13          0.6760    -0.0020    -2.1830 c3         1 6TU       0.104000
      3 C15         -0.5640     1.2060    -3.9600 c2         1 6TU      -0.157200
      4 C17         -1.8140    -0.0010    -1.6330 ca         1 6TU       0.027600
      5 C20         -4.4870    -0.0130    -2.3610 ca         1 6TU      -0.231000
      6 C21         -3.9670     1.0620    -1.6540 ca         1 6TU       0.154100
      7 C22         -2.6290     1.0690    -1.2890 ca         1 6TU      -0.129000
      8 C24         -6.1350     2.0340    -1.7280 c3         1 6TU       0.244700
      9 C19         -3.6730    -1.0770    -2.7030 ca         1 6TU      -0.058000
     10 C01          3.7820    -0.0010     0.7320 ca         1 6TU      -0.075000
     11 C02          4.1950    -0.0020    -0.5870 ca         1 6TU      -0.122000
     12 C03          3.2630    -0.0020    -1.6110 ca         1 6TU      -0.113000
     13 C04          1.9150    -0.0010    -1.3230 ca         1 6TU      -0.143300
     14 C05          1.4750     0.0000     0.0000 ca         1 6TU      -0.129600
     15 C06          2.4240     0.0000     1.0400 ca         1 6TU      -0.021600
     16 C07          1.9810     0.0000     2.4500 c          1 6TU       0.945200
     17 O08          2.8920    -0.0010     3.4430 o          1 6TU      -0.858300
     18 O09          0.7960     0.0010     2.7140 o          1 6TU      -0.858300
     19 O11         -0.6950     0.0050     0.9980 o          1 6TU      -0.558500
     20 N12         -0.4660    -0.0000    -1.2610 n          1 6TU      -0.077000
     21 C14          0.6440     1.2520    -3.0600 c3         1 6TU      -0.001200
     22 C16         -1.4110     2.2060    -3.9720 c2         1 6TU      -0.171000
     23 C18         -2.3400    -1.0740    -2.3400 ca         1 6TU      -0.162000
     24 O23         -4.7680     2.1080    -1.3200 os         1 6TU      -0.304900
     25 H1           0.6530    -0.8930    -2.7980 h1         1 6TU       0.021700
     26 H2          -0.7330     0.3460    -4.5960 ha         1 6TU       0.097000
     27 H3          -5.5320    -0.0180    -2.6470 ha         1 6TU       0.111000
     28 H4          -2.2210     1.9060    -0.7370 ha         1 6TU       0.135000
     29 H5          -6.6570     2.9250    -1.4030 h1         1 6TU      -0.007633
     30 H6          -6.1860     1.9590    -2.8080 h1         1 6TU      -0.007633
     31 H7          -6.5980     1.1610    -1.2830 h1         1 6TU      -0.007633
     32 H8          -4.0810    -1.9150    -3.2550 ha         1 6TU       0.091000
     33 H9           4.5170    -0.0010     1.5280 ha         1 6TU       0.134000
     34 H10          5.2530    -0.0030    -0.8220 ha         1 6TU       0.086000
     35 H11          3.5940    -0.0020    -2.6430 ha         1 6TU       0.084000
     36 H13          1.5420     1.2930    -3.6630 hc         1 6TU       0.029200
     37 H14          0.5920     2.1320    -2.4300 hc         1 6TU       0.029200
     38 H15         -1.2420     3.0670    -3.3350 ha         1 6TU       0.084500
     39 H16         -2.2790     2.1730    -4.6190 ha         1 6TU       0.084500
     40 H17         -1.7050    -1.9090    -2.6080 ha         1 6TU       0.110000
@<TRIPOS>BOND
     1     1    14 1   
     2     1    19 2   
     3     1    20 1   
     4     2    13 1   
     5     2    20 1   
     6     2    21 1   
     7     2    25 1   
     8     3    21 1   
     9     3    22 2   
    10     3    26 1   
    11     4     7 ar  
    12     4    20 1   
    13     4    23 ar  
    14     5     6 ar  
    15     5     9 ar  
    16     5    27 1   
    17     6     7 ar  
    18     6    24 1   
    19     7    28 1   
    20     8    24 1   
    21     8    29 1   
    22     8    30 1   
    23     8    31 1   
    24     9    23 ar  
    25     9    32 1   
    26    10    11 ar  
    27    10    15 ar  
    28    10    33 1   
    29    11    12 ar  
    30    11    34 1   
    31    12    13 ar  
    32    12    35 1   
    33    13    14 ar  
    34    14    15 ar  
    35    15    16 1   
    36    16    17 1   
    37    16    18 1   
    38    21    36 1   
    39    21    37 1   
    40    22    38 1   
    41    22    39 1   
    42    23    40 1   
@<TRIPOS>SUBSTRUCTURE
     1 6TU         1 TEMP              0 ****  ****    0 ROOT
