@<TRIPOS>MOLECULE
molecule
   39    40     1     0     0
SMALL
bcc


@<TRIPOS>ATOM
      1 C10          0.0000     0.0000     0.0000 ca         1 6TV       0.067000
      2 C11          1.4070     0.0000     0.0000 ca         1 6TV      -0.260300
      3 C12          2.0610     0.0000     1.1950 ca         1 6TV       0.439200
      4 C13          0.0980    -0.0000     2.4260 ca         1 6TV       0.458200
      5 O1           1.0380     1.0470    -2.6900 o          1 6TV      -0.635800
      6 O           -0.9570    -0.0380    -3.7330 o          1 6TV      -0.635800
      7 N1           0.9040    -1.4110    -2.8710 n7         1 6TV      -0.918100
      8 C4           0.1830    -2.6860    -2.8900 c3         1 6TV       0.231800
      9 C3           1.1100    -3.7880    -3.4050 c3         1 6TV       0.149800
     10 N            0.3880    -5.0670    -3.4250 n7         1 6TV      -0.820200
     11 C2           1.2490    -6.1510    -3.9140 c3         1 6TV       0.157800
     12 C1           0.4640    -7.4640    -3.9220 c3         1 6TV      -0.084400
     13 C            1.3610    -8.5930    -4.4310 c3         1 6TV      -0.092100
     14 C5          -0.7480     0.0060    -1.1870 ca         1 6TV      -0.314500
     15 N2           1.4090    -0.0000     2.3490 nb         1 6TV      -0.698000
     16 C9          -0.6700     0.0000     1.2510 ca         1 6TV      -0.191300
     17 C8          -2.0740     0.0010     1.2790 ca         1 6TV      -0.041000
     18 C7          -2.7690     0.0010     0.1070 ca         1 6TV      -0.165000
     19 C6          -2.1080     0.0060    -1.1200 ca         1 6TV       0.015000
     20 H1           1.9590     0.0000    -0.9320 ha         1 6TV       0.152000
     21 H2           3.1440    -0.0000     1.2020 h4         1 6TV       0.026100
     22 H3          -0.3890    -0.0000     3.3930 h4         1 6TV       0.028100
     23 H4           1.9000    -1.3980    -2.9670 hn         1 6TV       0.454800
     24 H5          -0.6780    -2.6040    -3.5430 h1         1 6TV       0.055200
     25 H6          -0.1460    -2.9300    -1.8880 h1         1 6TV       0.055200
     26 H7           1.9710    -3.8700    -2.7520 h1         1 6TV       0.038700
     27 H8           1.4400    -3.5440    -4.4080 h1         1 6TV       0.038700
     28 H9          -0.4160    -4.9870    -4.0170 hn         1 6TV       0.354800
     29 H11          2.1100    -6.2490    -3.2640 h1         1 6TV       0.033700
     30 H12          1.5810    -5.9230    -4.9200 h1         1 6TV       0.033700
     31 H13         -0.3970    -7.3650    -4.5720 hc         1 6TV       0.048200
     32 H14          0.1330    -7.6920    -2.9160 hc         1 6TV       0.048200
     33 H15          2.2220    -8.6910    -3.7820 hc         1 6TV       0.035033
     34 H16          1.6910    -8.3660    -5.4380 hc         1 6TV       0.035033
     35 H17          0.8040    -9.5220    -4.4350 hc         1 6TV       0.035033
     36 H18         -2.6010    -0.0030     2.2250 ha         1 6TV       0.139000
     37 H19         -3.8520     0.0020     0.1300 ha         1 6TV       0.140000
     38 H20         -2.6860     0.0060    -2.0360 ha         1 6TV       0.158000
     39 S            0.0660     0.0120    -2.7490 sy         1 6TV       1.431200
@<TRIPOS>BOND
     1    13    12 1
     2    12    11 1
     3     6    39 2
     4    11    10 1
     5    10     9 1
     6     7    39 1
     7     7     8 1
     8    39     5 2
     9    39    14 1
    10     9     8 1
    11    19    14 ar
    12    19    18 ar
    13    14     1 ar
    14    18    17 ar
    15     1     2 ar
    16     1    16 ar
    17     2     3 ar
    18    17    16 ar
    19    16     4 ar
    20     3    15 ar
    21     4    15 ar
    22     2    20 1
    23     3    21 1
    24     4    22 1
    25     7    23 1
    26     8    24 1
    27     8    25 1
    28     9    26 1
    29     9    27 1
    30    10    28 1
    31    11    29 1
    32    11    30 1
    33    12    31 1
    34    12    32 1
    35    13    33 1
    36    13    34 1
    37    13    35 1
    38    17    36 1
    39    18    37 1
    40    19    38 1
@<TRIPOS>SUBSTRUCTURE
     1 6TV         1 TEMP              0 ****  ****    0 ROOT
