@<TRIPOS>MOLECULE
6TV
   39    40     1     0     0
SMALL
bcc


@<TRIPOS>ATOM
      1 C10          0.0000     0.0000     0.0000 ca         1 6TV       0.068000
      2 C11          1.4070     0.0000     0.0000 ca         1 6TV      -0.236300
      3 C12          2.0610     0.0000     1.1950 ca         1 6TV       0.423200
      4 C13          0.0980    -0.0000     2.4260 ca         1 6TV       0.441200
      5 O1           1.0380     1.0470    -2.6900 o          1 6TV      -0.586800
      6 O           -0.9570    -0.0380    -3.7330 o          1 6TV      -0.586800
      7 N1           0.9040    -1.4110    -2.8710 n7         1 6TV      -0.587100
      8 C4           0.1830    -2.6860    -2.8900 c3         1 6TV       0.224800
      9 C3           1.1100    -3.7880    -3.4050 c3         1 6TV       0.132800
     10 N            0.3880    -5.0670    -3.4250 n7         1 6TV      -0.583200
     11 C2           1.2490    -6.1510    -3.9140 c3         1 6TV       0.143800
     12 C1           0.4640    -7.4640    -3.9220 c3         1 6TV      -0.028400
     13 C            1.3610    -8.5930    -4.4310 c3         1 6TV       0.008900
     14 C5          -0.7480     0.0060    -1.1870 ca         1 6TV      -0.156500
     15 N2           1.4090    -0.0000     2.3490 nb         1 6TV      -0.590000
     16 C9          -0.6700     0.0000     1.2510 ca         1 6TV      -0.195300
     17 C8          -2.0740     0.0010     1.2790 ca         1 6TV      -0.009000
     18 C7          -2.7690     0.0010     0.1070 ca         1 6TV      -0.146000
     19 C6          -2.1080     0.0060    -1.1200 ca         1 6TV       0.046000
     20 H1           1.9590     0.0000    -0.9320 ha         1 6TV       0.140000
     21 H2           3.1440    -0.0000     1.2020 h4         1 6TV      -0.019900
     22 H3          -0.3890    -0.0000     3.3930 h4         1 6TV      -0.017900
     23 H4           1.9000    -1.3980    -2.9670 hn         1 6TV       0.351800
     24 H5          -0.6780    -2.6040    -3.5430 h1         1 6TV       0.020700
     25 H6          -0.1460    -2.9300    -1.8880 h1         1 6TV       0.020700
     26 H7           1.9710    -3.8700    -2.7520 h1         1 6TV       0.010700
     27 H8           1.4400    -3.5440    -4.4080 h1         1 6TV       0.010700
     28 H9          -0.4160    -4.9870    -4.0170 hn         1 6TV       0.254800
     29 H11          2.1100    -6.2490    -3.2640 h1         1 6TV       0.007200
     30 H12          1.5810    -5.9230    -4.9200 h1         1 6TV       0.007200
     31 H13         -0.3970    -7.3650    -4.5720 hc         1 6TV       0.017200
     32 H14          0.1330    -7.6920    -2.9160 hc         1 6TV       0.017200
     33 H15          2.2220    -8.6910    -3.7820 hc         1 6TV       0.001367
     34 H16          1.6910    -8.3660    -5.4380 hc         1 6TV       0.001367
     35 H17          0.8040    -9.5220    -4.4350 hc         1 6TV       0.001367
     36 H18         -2.6010    -0.0030     2.2250 ha         1 6TV       0.107000
     37 H19         -3.8520     0.0020     0.1300 ha         1 6TV       0.112000
     38 H20         -2.6860     0.0060    -2.0360 ha         1 6TV       0.128000
     39 S            0.0660     0.0120    -2.7490 sy         1 6TV       1.050200
@<TRIPOS>BOND
     1     1     2 ar  
     2     1    14 ar  
     3     1    16 ar  
     4     2     3 ar  
     5     2    20 1   
     6     3    15 ar  
     7     3    21 1   
     8     4    15 ar  
     9     4    16 ar  
    10     4    22 1   
    11     5    39 2   
    12     6    39 2   
    13     7     8 1   
    14     7    23 1   
    15     7    39 1   
    16     8     9 1   
    17     8    24 1   
    18     8    25 1   
    19     9    10 1   
    20     9    26 1   
    21     9    27 1   
    22    10    11 1   
    23    10    28 1   
    24    11    12 1   
    25    11    29 1   
    26    11    30 1   
    27    12    13 1   
    28    12    31 1   
    29    12    32 1   
    30    13    33 1   
    31    13    34 1   
    32    13    35 1   
    33    14    19 ar  
    34    14    39 1   
    35    16    17 ar  
    36    17    18 ar  
    37    17    36 1   
    38    18    19 ar  
    39    18    37 1   
    40    19    38 1   
@<TRIPOS>SUBSTRUCTURE
     1 6TV         1 TEMP              0 ****  ****    0 ROOT
