@<TRIPOS>MOLECULE
6TW
   59    63     1     0     0
SMALL
bcc


@<TRIPOS>ATOM
      1 C2           0.0000     0.0000     0.0000 cc         1 6TW       0.375800
      2 C1'         -1.9260    -0.0010     4.0440 c3         1 6TW       0.154800
      3 C2'         -2.4520    -1.4480     4.1600 c3         1 6TW      -0.104400
      4 C3'         -3.3720    -1.4140     5.4010 c3         1 6TW       0.161100
      5 C4'         -3.2930     0.0490     5.8870 c3         1 6TW       0.154100
      6 O3'         -4.7130    -1.7530     5.0390 oh         1 6TW      -0.571800
      7 O4'         -2.0330     0.5400     5.3790 os         1 6TW      -0.386600
      8 C5'         -3.3080     0.1050     7.4170 c3         1 6TW       0.308400
      9 C10         -4.8330     0.3200    -1.3120 ca         1 6TW      -0.027000
     10 C11         -4.1550    -0.4410    -2.2800 ca         1 6TW      -0.092000
     11 C12         -2.7950    -0.5390    -2.2320 ca         1 6TW      -0.116400
     12 C16         -4.7740     1.7370     0.6700 ca         1 6TW      -0.088000
     13 C17         -6.1320     1.8320     0.6180 ca         1 6TW      -0.097000
     14 C18         -6.8590     1.1830    -0.3760 ca         1 6TW      -0.100000
     15 C19         -6.2330     0.4380    -1.3290 ca         1 6TW      -0.083000
     16 C23         -2.6880    -1.5100    -4.4020 c          1 6TW       0.558100
     17 C24         -2.0150    -2.4160    -5.4010 c3         1 6TW      -0.069100
     18 C3          -2.0610     0.1120    -1.2260 ca         1 6TW      -0.032400
     19 C4          -0.0860     0.0000     2.3080 cd         1 6TW      -0.101200
     20 C5           1.3120    -0.0000     2.3740 cc         1 6TW       0.146800
     21 C6           2.0460     0.0000     1.1660 c          1 6TW       0.549000
     22 C7          -2.6930     0.8580    -0.2720 ca         1 6TW      -0.075000
     23 C8           0.5720    -0.0000     4.4120 cd         1 6TW       0.234400
     24 C9          -4.0930     0.9780    -0.2970 ca         1 6TW      -0.034000
     25 N1           1.3630     0.0000     0.0000 ns         1 6TW      -0.033400
     26 N2          -0.6680    -0.0060    -1.2010 nu         1 6TW      -0.269600
     27 N3          -0.6940    -0.0000     1.1160 nd         1 6TW      -0.600100
     28 N7           1.6520     0.0000     3.6860 nc         1 6TW      -0.521000
     29 N9          -0.5270    -0.0010     3.6040 na         1 6TW       0.287100
     30 O25         -3.7370    -0.9700    -4.6830 o          1 6TW      -0.626100
     31 O5'         -3.3510     1.4680     7.8440 os         1 6TW      -0.407900
     32 O6           3.2650     0.0000     1.1750 o          1 6TW      -0.652500
     33 P           -3.3770     1.8990     9.3940 p3         1 6TW       0.462300
     34 H1          -2.5420     0.5680     3.3580 h2         1 6TW       0.053700
     35 H2          -1.6310    -2.1370     4.3170 hc         1 6TW       0.046200
     36 H3          -3.0180    -1.7170     3.2760 hc         1 6TW       0.046200
     37 H4          -2.9990    -2.0860     6.1640 h1         1 6TW       0.011700
     38 H5          -4.1120     0.6260     5.4750 h1         1 6TW       0.052700
     39 H6          -4.8970    -2.6380     5.3080 ho         1 6TW       0.394000
     40 H7          -4.1810    -0.4180     7.7880 h1         1 6TW      -0.013800
     41 H8          -2.4130    -0.3670     7.8040 h1         1 6TW      -0.013800
     42 H9          -4.7100    -0.9480    -3.0600 ha         1 6TW       0.162000
     43 H10         -4.2220     2.2480     1.4500 ha         1 6TW       0.107000
     44 H11         -6.6540     2.4190     1.3640 ha         1 6TW       0.102000
     45 H12         -7.9390     1.2750    -0.3940 ha         1 6TW       0.101000
     46 H13         -6.8120    -0.0620    -2.0960 ha         1 6TW       0.109000
     47 H14         -1.1400    -1.9210    -5.8040 hc         1 6TW       0.025033
     48 H15         -1.7170    -3.3350    -4.9110 hc         1 6TW       0.025033
     49 H16         -2.7050    -2.6420    -6.2050 hc         1 6TW       0.025033
     50 H17         -2.1180     1.3570     0.4990 ha         1 6TW       0.145000
     51 H18          0.5500     0.0000     5.4950 h5         1 6TW       0.035100
     52 H19          1.8610     0.0000    -0.8680 hn         1 6TW       0.176500
     53 H20         -0.1540    -0.0500    -2.0580 hn         1 6TW       0.279800
     54 H21         -1.2430    -1.7220    -2.9760 hn         1 6TW       0.161500
     55 H22         -2.2960     3.6540     9.8930 ho         1 6TW       0.423500
     56 H23         -5.1030     1.7320    10.6120 ho         1 6TW       0.423500
     57 N22         -2.1220    -1.2980    -3.1970 ns         1 6TW      -0.039100
     58 OP1         -3.0130     3.4670     9.3110 oh         1 6TW      -0.571100
     59 OP2         -4.9560     1.9380     9.7040 oh         1 6TW      -0.571100
@<TRIPOS>BOND
     1     1    25 1   
     2     1    26 1   
     3     1    27 2   
     4     2     3 1   
     5     2     7 1   
     6     2    29 1   
     7     2    34 1   
     8     3     4 1   
     9     3    35 1   
    10     3    36 1   
    11     4     5 1   
    12     4     6 1   
    13     4    37 1   
    14     5     7 1   
    15     5     8 1   
    16     5    38 1   
    17     6    39 1   
    18     8    31 1   
    19     8    40 1   
    20     8    41 1   
    21     9    10 ar  
    22     9    15 ar  
    23     9    24 ar  
    24    10    11 ar  
    25    10    42 1   
    26    11    18 ar  
    27    11    57 1   
    28    12    13 ar  
    29    12    24 ar  
    30    12    43 1   
    31    13    14 ar  
    32    13    44 1   
    33    14    15 ar  
    34    14    45 1   
    35    15    46 1   
    36    16    17 1   
    37    16    30 2   
    38    16    57 1   
    39    17    47 1   
    40    17    48 1   
    41    17    49 1   
    42    18    22 ar  
    43    18    26 1   
    44    19    20 2   
    45    19    27 1   
    46    19    29 1   
    47    20    21 1   
    48    20    28 1   
    49    21    25 1   
    50    21    32 2   
    51    22    24 ar  
    52    22    50 1   
    53    23    28 2   
    54    23    29 1   
    55    23    51 1   
    56    25    52 1   
    57    26    53 1   
    58    31    33 1   
    59    33    58 1   
    60    33    59 1   
    61    54    57 1   
    62    55    58 1   
    63    56    59 1   
@<TRIPOS>SUBSTRUCTURE
     1 6TW         1 TEMP              0 ****  ****    0 ROOT
