@<TRIPOS>MOLECULE
molecule
   59    63     1     0     0
SMALL
bcc


@<TRIPOS>ATOM
      1 C2           0.0000     0.0000     0.0000 cc         1 6TW       0.730800
      2 C1'         -1.9260    -0.0010     4.0440 c3         1 6TW       0.255800
      3 C2'         -2.4520    -1.4480     4.1600 c3         1 6TW      -0.149400
      4 C3'         -3.3720    -1.4140     5.4010 c3         1 6TW       0.113100
      5 C4'         -3.2930     0.0490     5.8870 c3         1 6TW       0.134100
      6 O3'         -4.7130    -1.7530     5.0390 oh         1 6TW      -0.591800
      7 O4'         -2.0330     0.5400     5.3790 os         1 6TW      -0.402600
      8 C5'         -3.3080     0.1050     7.4170 c3         1 6TW       0.203400
      9 C10         -4.8330     0.3200    -1.3120 ca         1 6TW      -0.030000
     10 C11         -4.1550    -0.4410    -2.2800 ca         1 6TW      -0.115000
     11 C12         -2.7950    -0.5390    -2.2320 ca         1 6TW       0.028600
     12 C16         -4.7740     1.7370     0.6700 ca         1 6TW      -0.113000
     13 C17         -6.1320     1.8320     0.6180 ca         1 6TW      -0.124000
     14 C18         -6.8590     1.1830    -0.3760 ca         1 6TW      -0.125000
     15 C19         -6.2330     0.4380    -1.3290 ca         1 6TW      -0.111000
     16 C23         -2.6880    -1.5100    -4.4020 c          1 6TW       0.656100
     17 C24         -2.0150    -2.4160    -5.4010 c3         1 6TW      -0.172100
     18 C3          -2.0610     0.1120    -1.2260 ca         1 6TW       0.120600
     19 C4          -0.0860     0.0000     2.3080 cd         1 6TW       0.116800
     20 C5           1.3120    -0.0000     2.3740 cc         1 6TW       0.186800
     21 C6           2.0460     0.0000     1.1660 c          1 6TW       0.641000
     22 C7          -2.6930     0.8580    -0.2720 ca         1 6TW      -0.095000
     23 C8           0.5720    -0.0000     4.4120 cd         1 6TW       0.426400
     24 C9          -4.0930     0.9780    -0.2970 ca         1 6TW      -0.040000
     25 N1           1.3630     0.0000     0.0000 ns         1 6TW      -0.485400
     26 N2          -0.6680    -0.0060    -1.2010 nu         1 6TW      -0.732600
     27 N3          -0.6940    -0.0000     1.1160 nd         1 6TW      -0.716100
     28 N7           1.6520     0.0000     3.6860 nc         1 6TW      -0.627000
     29 N9          -0.5270    -0.0010     3.6040 na         1 6TW      -0.187900
     30 O25         -3.7370    -0.9700    -4.6830 o          1 6TW      -0.588100
     31 O5'         -3.3510     1.4680     7.8440 os         1 6TW      -0.342900
     32 O6           3.2650     0.0000     1.1750 o          1 6TW      -0.606500
     33 P           -3.3770     1.8990     9.3940 p3         1 6TW       0.237300
     34 H1          -2.5420     0.5680     3.3580 h2         1 6TW       0.092700
     35 H2          -1.6310    -2.1370     4.3170 hc         1 6TW       0.080200
     36 H3          -3.0180    -1.7170     3.2760 hc         1 6TW       0.080200
     37 H4          -2.9990    -2.0860     6.1640 h1         1 6TW       0.047700
     38 H5          -4.1120     0.6260     5.4750 h1         1 6TW       0.090700
     39 H6          -4.8970    -2.6380     5.3080 ho         1 6TW       0.410000
     40 H7          -4.1810    -0.4180     7.7880 h1         1 6TW       0.034700
     41 H8          -2.4130    -0.3670     7.8040 h1         1 6TW       0.034700
     42 H9          -4.7100    -0.9480    -3.0600 ha         1 6TW       0.181000
     43 H10         -4.2220     2.2480     1.4500 ha         1 6TW       0.134000
     44 H11         -6.6540     2.4190     1.3640 ha         1 6TW       0.131000
     45 H12         -7.9390     1.2750    -0.3940 ha         1 6TW       0.130000
     46 H13         -6.8120    -0.0620    -2.0960 ha         1 6TW       0.137000
     47 H14         -1.1400    -1.9210    -5.8040 hc         1 6TW       0.064700
     48 H15         -1.7170    -3.3350    -4.9110 hc         1 6TW       0.064700
     49 H16         -2.7050    -2.6420    -6.2050 hc         1 6TW       0.064700
     50 H17         -2.1180     1.3570     0.4990 ha         1 6TW       0.169000
     51 H18          0.5500     0.0000     5.4950 h5         1 6TW       0.082100
     52 H19          1.8610     0.0000    -0.8680 hn         1 6TW       0.334500
     53 H20         -0.1540    -0.0500    -2.0580 hn         1 6TW       0.452800
     54 H21         -1.2430    -1.7220    -2.9760 hn         1 6TW       0.318500
     55 H22         -2.2960     3.6540     9.8930 ho         1 6TW       0.427500
     56 H23         -5.1030     1.7320    10.6120 ho         1 6TW       0.427500
     57 N22         -2.1220    -1.2980    -3.1970 ns         1 6TW      -0.481100
     58 OP1         -3.0130     3.4670     9.3110 oh         1 6TW      -0.502100
     59 OP2         -4.9560     1.9380     9.7040 oh         1 6TW      -0.502100
@<TRIPOS>BOND
     1    14    15 ar  
     2    14    13 ar  
     3    15     9 ar  
     4    13    12 ar  
     5     9    10 ar  
     6     9    24 ar  
     7    10    11 ar  
     8    12    24 ar  
     9    24    22 ar  
    10    11    57 1   
    11    11    18 ar  
    12    22    18 ar  
    13    57    16 1   
    14    18    26 1   
    15    16    30 2   
    16    16    17 1   
    17    26     1 1   
    18    32    21 2   
    19    25     1 1   
    20    25    21 1   
    21     1    27 2   
    22    21    20 1   
    23    27    19 1   
    24    20    19 2   
    25    20    28 1   
    26    19    29 1   
    27    28    23 2   
    28    29    23 1   
    29    29     2 1   
    30     2     7 1   
    31     2     3 1   
    32     7     5 1   
    33     3     4 1   
    34     5     4 1   
    35     5     8 1   
    36     6     4 1   
    37    31     8 1   
    38    31    33 1   
    39    33    58 1   
    40    33    59 1   
    41     2    34 1   
    42     3    35 1   
    43     3    36 1   
    44     4    37 1   
    45     5    38 1   
    46     6    39 1   
    47     8    40 1   
    48     8    41 1   
    49    10    42 1   
    50    12    43 1   
    51    13    44 1   
    52    14    45 1   
    53    15    46 1   
    54    17    47 1   
    55    17    48 1   
    56    17    49 1   
    57    22    50 1   
    58    23    51 1   
    59    25    52 1   
    60    26    53 1   
    61    57    54 1   
    62    58    55 1   
    63    59    56 1   
@<TRIPOS>SUBSTRUCTURE
     1 6TW         1 TEMP              0 ****  ****    0 ROOT
