@<TRIPOS>MOLECULE
6TX
   40    41     1     0     0
SMALL
bcc


@<TRIPOS>ATOM
      1 C1           0.0000     0.0000     0.0000 c3         1 6TX      -0.052400
      2 C2           1.5300     0.0000     0.0000 c3         1 6TX       0.228800
      3 C3           2.1590    -1.2640     2.1080 c3         1 6TX       0.243800
      4 C4           0.8230    -1.6280     2.7590 c3         1 6TX      -0.107200
      5 C5           4.0780     1.8020     1.6800 ca         1 6TX      -0.148500
      6 C6           4.6830     1.1360     0.6570 ca         1 6TX       0.011000
      7 C7           5.9980     1.4200     0.2940 ca         1 6TX      -0.148000
      8 C8           6.7190     2.3710     0.9510 ca         1 6TX       0.018000
      9 C9           6.1290     3.0770     2.0100 ca         1 6TX      -0.192300
     10 C10          4.7870     2.7910     2.3740 ca         1 6TX       0.076000
     11 C12          4.9780     4.4520     4.0720 ca         1 6TX       0.444200
     12 C13          6.8220     4.0680     2.7240 ca         1 6TX       0.451200
     13 O1           2.4160     1.1710     3.5170 o          1 6TX      -0.574800
     14 S            2.4120     1.4290     2.1200 sy         1 6TX       1.060200
     15 O            1.6030     2.4290     1.5170 o          1 6TX      -0.574800
     16 N            2.0180     0.0000     1.3810 n3         1 6TX      -0.535500
     17 N1           0.9640    -2.8960     3.4890 nz         1 6TX       0.097400
     18 C           -0.5100     0.0010    -1.4430 c3         1 6TX       0.013900
     19 C11          4.2190     3.5140     3.4400 ca         1 6TX      -0.242300
     20 N2           6.2280     4.7020     3.7070 nb         1 6TX      -0.573000
     21 H1          -0.3610     0.8840     0.5110 hc         1 6TX       0.015200
     22 H2          -0.3610    -0.8850     0.5100 hc         1 6TX       0.015200
     23 H3           1.8910    -0.8850    -0.5110 h1         1 6TX       0.033200
     24 H4           1.8920     0.8840    -0.5110 h1         1 6TX       0.033200
     25 H5           2.9170    -1.1580     2.8740 h1         1 6TX       0.033700
     26 H6           2.4500    -2.0470     1.4180 h1         1 6TX       0.033700
     27 H7           0.5320    -0.8450     3.4490 hx         1 6TX       0.102700
     28 H8           0.0650    -1.7350     1.9930 hx         1 6TX       0.102700
     29 H9           4.1330     0.3750     0.1170 ha         1 6TX       0.094000
     30 H10          6.4550     0.8750    -0.5230 ha         1 6TX       0.117000
     31 H11          7.7400     2.5800     0.6580 ha         1 6TX       0.116000
     32 H12          4.5470     5.0120     4.8930 h4         1 6TX      -0.012900
     33 H13          7.8460     4.3080     2.4630 h4         1 6TX      -0.009900
     34 H14          1.6500    -2.7920     4.2100 hn         1 6TX       0.221133
     35 H15          1.2520    -3.6150     2.8550 hn         1 6TX       0.221133
     36 H17         -0.1890     0.9090    -1.9380 hc         1 6TX       0.011700
     37 H18         -0.1090    -0.8580    -1.9680 hc         1 6TX       0.011700
     38 H19         -1.5920    -0.0480    -1.4440 hc         1 6TX       0.011700
     39 H20          3.1990     3.3250     3.7540 ha         1 6TX       0.137000
     40 H16          0.0850    -3.1450     3.8980 hn         1 6TX       0.221133
@<TRIPOS>BOND
     1     1     2 1   
     2     1    18 1   
     3     1    21 1   
     4     1    22 1   
     5     2    16 1   
     6     2    23 1   
     7     2    24 1   
     8     3     4 1   
     9     3    16 1   
    10     3    25 1   
    11     3    26 1   
    12     4    17 1   
    13     4    27 1   
    14     4    28 1   
    15     5     6 ar  
    16     5    10 ar  
    17     5    14 1   
    18     6     7 ar  
    19     6    29 1   
    20     7     8 ar  
    21     7    30 1   
    22     8     9 ar  
    23     8    31 1   
    24     9    10 ar  
    25     9    12 ar  
    26    10    19 ar  
    27    11    19 ar  
    28    11    20 ar  
    29    11    32 1   
    30    12    20 ar  
    31    12    33 1   
    32    13    14 2   
    33    14    15 2   
    34    14    16 1   
    35    17    34 1   
    36    17    35 1   
    37    17    40 1   
    38    18    36 1   
    39    18    37 1   
    40    18    38 1   
    41    19    39 1   
@<TRIPOS>SUBSTRUCTURE
     1 6TX         1 TEMP              0 ****  ****    0 ROOT
