@<TRIPOS>MOLECULE
6TY
   37    39     1     0     0
SMALL
bcc


@<TRIPOS>ATOM
      1 C2           0.0000     0.0000     0.0000 c3         1 6TY       0.129800
      2 C5          -1.2780     3.3920     3.2960 ca         1 6TY      -0.153500
      3 N            1.4690     0.0000     0.0000 n7         1 6TY      -0.579200
      4 C8          -2.0660     6.0780     3.2420 ca         1 6TY      -0.009000
      5 C9          -0.7070     5.7610     3.3910 ca         1 6TY      -0.195300
      6 C10         -0.3090     4.3980     3.4180 ca         1 6TY       0.070000
      7 C11          1.0590     4.1080     3.5680 ca         1 6TY      -0.251300
      8 C12          1.9390     5.1420     3.6800 ca         1 6TY       0.424200
      9 C13          0.2810     6.7510     3.5140 ca         1 6TY       0.440200
     10 C           -2.0280     1.2250     0.8040 c3         1 6TY      -0.078100
     11 O            0.0600     1.5420     4.4450 o          1 6TY      -0.591800
     12 O1          -1.9990     0.9430     3.1610 o          1 6TY      -0.591800
     13 N1           0.1150     1.4180     1.9800 n3         1 6TY      -0.530500
     14 C4           1.5780     1.2910     2.0780 c3         1 6TY       0.223800
     15 C3           2.0030     0.0000     1.3680 c3         1 6TY       0.132800
     16 C1          -0.5080     1.2900     0.6540 c3         1 6TY       0.225500
     17 N2           1.5400     6.4070     3.6510 nb         1 6TY      -0.590000
     18 C7          -2.9810     5.0750     3.1360 ca         1 6TY      -0.146000
     19 C6          -2.5880     3.7380     3.1580 ca         1 6TY       0.040000
     20 H1          -0.3600    -0.8540     0.5600 h1         1 6TY       0.014700
     21 H2          -0.3600    -0.0520    -1.0200 h1         1 6TY       0.014700
     22 H3           1.8030    -0.8070    -0.4880 hn         1 6TY       0.253800
     23 H5          -2.3860     7.1130     3.2230 ha         1 6TY       0.107000
     24 H6           1.4060     3.0820     3.5940 ha         1 6TY       0.151000
     25 H7           2.9940     4.9260     3.7960 h4         1 6TY      -0.020900
     26 H8           0.0040     7.7980     3.4960 h4         1 6TY      -0.017900
     27 H9          -2.3830     2.1340     1.2760 hc         1 6TY       0.036367
     28 H10         -2.2950     0.3730     1.4170 hc         1 6TY       0.036367
     29 H11         -2.4840     1.1240    -0.1730 hc         1 6TY       0.036367
     30 H12          1.8700     1.2450     3.1200 h1         1 6TY       0.033200
     31 H13          2.0490     2.1400     1.5990 h1         1 6TY       0.033200
     32 H14          3.0840    -0.0530     1.3330 h1         1 6TY       0.012200
     33 H15          1.6110    -0.8540     1.9080 h1         1 6TY       0.012200
     34 H16         -0.2330     2.1390     0.0410 h1         1 6TY       0.025700
     35 H17         -4.0300     5.3200     3.0250 ha         1 6TY       0.111000
     36 H18         -3.3380     2.9600     3.0730 ha         1 6TY       0.130000
     37 S           -0.8050     1.6950     3.3290 sy         1 6TY       1.062200
@<TRIPOS>BOND
     1     1     3 1   
     2     1    16 1   
     3     1    20 1   
     4     1    21 1   
     5     2     6 ar  
     6     2    19 ar  
     7     2    37 1   
     8     3    15 1   
     9     3    22 1   
    10     4     5 ar  
    11     4    18 ar  
    12     4    23 1   
    13     5     6 ar  
    14     5     9 ar  
    15     6     7 ar  
    16     7     8 ar  
    17     7    24 1   
    18     8    17 ar  
    19     8    25 1   
    20     9    17 ar  
    21     9    26 1   
    22    10    16 1   
    23    10    27 1   
    24    10    28 1   
    25    10    29 1   
    26    11    37 2   
    27    12    37 2   
    28    13    14 1   
    29    13    16 1   
    30    13    37 1   
    31    14    15 1   
    32    14    30 1   
    33    14    31 1   
    34    15    32 1   
    35    15    33 1   
    36    16    34 1   
    37    18    19 ar  
    38    18    35 1   
    39    19    36 1   
@<TRIPOS>SUBSTRUCTURE
     1 6TY         1 TEMP              0 ****  ****    0 ROOT
