@<TRIPOS>MOLECULE
molecule
   37    39     1     0     0
SMALL
bcc


@<TRIPOS>ATOM
      1 C2           0.0000     0.0000     0.0000 c3         1 6TY       0.150800
      2 C5          -1.2780     3.3920     3.2960 ca         1 6TY      -0.311500
      3 N            1.4690     0.0000     0.0000 n7         1 6TY      -0.819200
      4 C8          -2.0660     6.0780     3.2420 ca         1 6TY      -0.042000
      5 C9          -0.7070     5.7610     3.3910 ca         1 6TY      -0.191300
      6 C10         -0.3090     4.3980     3.4180 ca         1 6TY       0.068000
      7 C11          1.0590     4.1080     3.5680 ca         1 6TY      -0.265300
      8 C12          1.9390     5.1420     3.6800 ca         1 6TY       0.437200
      9 C13          0.2810     6.7510     3.5140 ca         1 6TY       0.457200
     10 C           -2.0280     1.2250     0.8040 c3         1 6TY      -0.138100
     11 O            0.0600     1.5420     4.4450 o          1 6TY      -0.641300
     12 O1          -1.9990     0.9430     3.1610 o          1 6TY      -0.641300
     13 N1           0.1150     1.4180     1.9800 n3         1 6TY      -0.818500
     14 C4           1.5780     1.2910     2.0780 c3         1 6TY       0.231800
     15 C3           2.0030     0.0000     1.3680 c3         1 6TY       0.147800
     16 C1          -0.5080     1.2900     0.6540 c3         1 6TY       0.250500
     17 N2           1.5400     6.4070     3.6510 nb         1 6TY      -0.698000
     18 C7          -2.9810     5.0750     3.1360 ca         1 6TY      -0.165000
     19 C6          -2.5880     3.7380     3.1580 ca         1 6TY       0.010000
     20 H1          -0.3600    -0.8540     0.5600 h1         1 6TY       0.042200
     21 H2          -0.3600    -0.0520    -1.0200 h1         1 6TY       0.042200
     22 H3           1.8030    -0.8070    -0.4880 hn         1 6TY       0.357800
     23 H5          -2.3860     7.1130     3.2230 ha         1 6TY       0.139000
     24 H6           1.4060     3.0820     3.5940 ha         1 6TY       0.157000
     25 H7           2.9940     4.9260     3.7960 h4         1 6TY       0.025100
     26 H8           0.0040     7.7980     3.4960 h4         1 6TY       0.027100
     27 H9          -2.3830     2.1340     1.2760 hc         1 6TY       0.060700
     28 H10         -2.2950     0.3730     1.4170 hc         1 6TY       0.060700
     29 H11         -2.4840     1.1240    -0.1730 hc         1 6TY       0.060700
     30 H12          1.8700     1.2450     3.1200 h1         1 6TY       0.064700
     31 H13          2.0490     2.1400     1.5990 h1         1 6TY       0.064700
     32 H14          3.0840    -0.0530     1.3330 h1         1 6TY       0.040700
     33 H15          1.6110    -0.8540     1.9080 h1         1 6TY       0.040700
     34 H16         -0.2330     2.1390     0.0410 h1         1 6TY       0.061700
     35 H17         -4.0300     5.3200     3.0250 ha         1 6TY       0.139000
     36 H18         -3.3380     2.9600     3.0730 ha         1 6TY       0.157000
     37 S           -0.8050     1.6950     3.3290 sy         1 6TY       1.435200
@<TRIPOS>BOND
     1    14    15 1
     2    14    13 1
     3    15     3 1
     4    12    37 2
     5     3     1 1
     6    13    37 1
     7    13    16 1
     8    37    11 2
     9    37     2 1
    10    10    16 1
    11    16     1 1
    12    19     2 ar
    13    19    18 ar
    14     2     6 ar
    15    18     4 ar
    16     6     7 ar
    17     6     5 ar
    18     7     8 ar
    19     4     5 ar
    20     5     9 ar
    21     8    17 ar
    22     9    17 ar
    23     1    20 1
    24     1    21 1
    25     3    22 1
    26     4    23 1
    27     7    24 1
    28     8    25 1
    29     9    26 1
    30    10    27 1
    31    10    28 1
    32    10    29 1
    33    14    30 1
    34    14    31 1
    35    15    32 1
    36    15    33 1
    37    16    34 1
    38    18    35 1
    39    19    36 1
@<TRIPOS>SUBSTRUCTURE
     1 6TY         1 TEMP              0 ****  ****    0 ROOT
