@<TRIPOS>MOLECULE
6TZ
   19    20     1     0     0
SMALL
bcc


@<TRIPOS>ATOM
      1 C1          0.0100    0.1700    0.0010 ca        1 6TZ     -0.110000
      2 C2          1.4040    0.1590    0.0100 ca        1 6TZ     -0.121000
      3 C3          2.1000   -0.0260    1.2130 ca        1 6TZ     -0.082500
      4 C4          1.3890   -0.2030    2.4070 ca        1 6TZ     -0.156000
      5 C5         -0.0160   -0.1880    2.3860 ca        1 6TZ      0.120900
      6 C6         -0.7120   -0.0010    1.1780 ca        1 6TZ     -0.163000
      7 F7         -0.7050   -0.3580    3.5420 f         1 6TZ     -0.143900
      8 C8          3.5530   -0.0320    1.2450 cc        1 6TZ      0.346800
      9 C9          4.3760    0.2400    2.4110 cc        1 6TZ     -0.278300
     10 C10         5.6950    0.1190    1.9570 cd        1 6TZ     -0.150300
     11 N11         5.6130   -0.2050    0.5990 na        1 6TZ     -0.014600
     12 N12         4.3600   -0.2980    0.1680 nd        1 6TZ     -0.503800
     13 H1         -0.5280    0.3150   -0.9480 ha        1 6TZ      0.138000
     14 H2          1.9560    0.2950   -0.9320 ha        1 6TZ      0.151000
     15 H4          1.9170   -0.3580    3.3580 ha        1 6TZ      0.150000
     16 H6         -1.8110    0.0080    1.1770 ha        1 6TZ      0.148000
     17 H9          4.0310    0.4910    3.4060 ha        1 6TZ      0.169000
     18 H10         6.6480    0.2350    2.4710 h4        1 6TZ      0.178000
     19 HN11        6.3670   -0.3720   -0.0240 hn        1 6TZ      0.322700
@<TRIPOS>BOND
     1    1    2 ar  
     2    1    6 ar  
     3    1   13 1   
     4    2    3 ar  
     5    2   14 1   
     6    3    4 ar  
     7    3    8 1   
     8    4    5 ar  
     9    4   15 1   
    10    5    6 ar  
    11    5    7 1   
    12    6   16 1   
    13    8    9 1   
    14    8   12 2   
    15    9   10 2   
    16    9   17 1   
    17   10   11 1   
    18   10   18 1   
    19   11   12 1   
    20   11   19 1   
@<TRIPOS>SUBSTRUCTURE
     1 6TZ         1 TEMP              0 ****  ****    0 ROOT
