@<TRIPOS>MOLECULE
molecule
   19    20     1     0     0
SMALL
bcc


@<TRIPOS>ATOM
      1 C1           0.0000     0.0000     0.0000 ca         1 6TZ      -0.108000
      2 C2           1.3800     0.0000     0.0000 ca         1 6TZ      -0.118000
      3 C3           2.0760     0.0000     1.2070 ca         1 6TZ      -0.085500
      4 C4           1.3740    -0.0010     2.4100 ca         1 6TZ      -0.152000
      5 C5          -0.0080    -0.0010     2.4010 ca         1 6TZ       0.129900
      6 C6          -0.6950    -0.0010     1.1970 ca         1 6TZ      -0.163000
      7 F7          -0.6910    -0.0020     3.5660 f          1 6TZ      -0.141900
      8 C8           3.5600    -0.0000     1.2110 cc         1 6TZ       0.392800
      9 C9           4.3860    -0.0000     2.3520 cc         1 6TZ      -0.335300
     10 C10          5.6700    -0.0000     1.9340 cd         1 6TZ      -0.113300
     11 N11          5.6690    -0.0000     0.5830 na         1 6TZ      -0.042600
     12 N12          4.3370    -0.0050     0.1490 nd         1 6TZ      -0.503800
     13 H1          -0.5410    -0.0000    -0.9390 ha         1 6TZ       0.138000
     14 H2           1.9220     0.0010    -0.9380 ha         1 6TZ       0.152000
     15 H4           1.9100    -0.0010     3.3520 ha         1 6TZ       0.148000
     16 H6          -1.7780    -0.0010     1.1930 ha         1 6TZ       0.144000
     17 H9           4.0500     0.0000     3.3820 ha         1 6TZ       0.157000
     18 H10          6.5470     0.0020     2.5700 h4         1 6TZ       0.170000
     19 HN11         6.4780    -0.0010    -0.0050 hn         1 6TZ       0.330700
@<TRIPOS>BOND
     1     1     2 ar
     2     1     6 ar
     3     2     3 ar
     4     3     4 ar
     5     3     8 1
     6     4     5 ar
     7     5     6 ar
     8     5     7 1
     9     8     9 1
    10     8    12 2
    11     9    10 2
    12    10    11 1
    13    11    12 1
    14     1    13 1
    15     2    14 1
    16     4    15 1
    17     6    16 1
    18     9    17 1
    19    10    18 1
    20    11    19 1
@<TRIPOS>SUBSTRUCTURE
     1 6TZ         1 TEMP              0 ****  ****    0 ROOT
