@<TRIPOS>MOLECULE
molecule
   48    51     1     0     0
SMALL
bcc


@<TRIPOS>ATOM
      1 OP3          0.0000     0.0000     0.0000 o          1 6U0      -0.908500
      2 P            1.6090     0.0000     0.0000 p5         1 6U0       1.177900
      3 OP1          2.1460     0.0000     1.5180 o          1 6U0      -0.908500
      4 OP2          2.1040    -1.2080    -0.6980 o          1 6U0      -0.908500
      5 O5'          2.1470     1.3140    -0.7580 os         1 6U0      -0.565200
      6 C5'          1.9290     1.5530    -2.1500 c3         1 6U0       0.229400
      7 C4'          2.5680     2.8870    -2.5450 c3         1 6U0       0.117100
      8 O4'          4.0080     2.7860    -2.5030 os         1 6U0      -0.347600
      9 C3'          2.2390     3.2270    -4.0150 c3         1 6U0       0.096100
     10 O3'          1.1430     4.1410    -4.0850 oh         1 6U0      -0.584800
     11 C2'          3.5320     3.8840    -4.5470 c3         1 6U0       0.089100
     12 O2'          3.2760     5.2260    -4.9650 oh         1 6U0      -0.590800
     13 C1'          4.4890     3.8630    -3.3350 c3         1 6U0       0.100800
     14 C14          5.9010     3.5890    -3.7860 cc         1 6U0       0.318600
     15 C15          7.0030     4.3140    -3.4840 cd         1 6U0      -0.294600
     16 N16          8.0390     3.7000    -4.1010 na         1 6U0       0.106400
     17 C17          9.4400     4.1290    -4.0600 c3         1 6U0       0.151600
     18 C18         10.3000     2.9900    -3.5770 cd         1 6U0      -0.258900
     19 C19         10.5440     2.6590    -2.2920 cc         1 6U0       0.356200
     20 N20         11.3470     1.5890    -2.2780 nc         1 6U0      -0.681000
     21 C21         11.6170     1.2340    -3.5140 cd         1 6U0       0.464000
     22 C22         12.4720     0.0970    -3.9210 ca         1 6U0      -0.101500
     23 C23         13.0730    -0.7090    -2.9530 ca         1 6U0      -0.105000
     24 C24         13.8680    -1.7690    -3.3390 ca         1 6U0      -0.131000
     25 C25         14.0700    -2.0330    -4.6820 ca         1 6U0      -0.129000
     26 C26         13.4760    -1.2380    -5.6460 ca         1 6U0      -0.131000
     27 C27         12.6740    -0.1790    -5.2730 ca         1 6U0      -0.105000
     28 N28         10.9760     2.0920    -4.3580 na         1 6U0      -0.272900
     29 N29          7.5830     2.6740    -4.7300 nd         1 6U0      -0.224800
     30 N30          6.3120     2.5760    -4.5580 nc         1 6U0      -0.332000
     31 H3           0.8650     1.5900    -2.3480 h1         1 6U0       0.023200
     32 H4           2.3760     0.7540    -2.7280 h1         1 6U0       0.023200
     33 H5           2.2290     3.6820    -1.8920 h1         1 6U0       0.070700
     34 H6           2.0210     2.3220    -4.5710 h1         1 6U0       0.052700
     35 H7           0.5010     3.8160    -4.6940 ho         1 6U0       0.386000
     36 H8           3.9430     3.3000    -5.3610 h1         1 6U0       0.048700
     37 H9           3.4600     5.3090    -5.8860 ho         1 6U0       0.379000
     38 H10          4.4350     4.8030    -2.7990 h1         1 6U0       0.061700
     39 H11          7.0790     5.0620    -2.7040 h4         1 6U0       0.182000
     40 H12          9.5400     4.9690    -3.3840 h1         1 6U0       0.065700
     41 H13          9.7560     4.4250    -5.0530 h1         1 6U0       0.065700
     42 H14         10.1560     3.1720    -1.4200 h4         1 6U0       0.051100
     43 H16         12.9160    -0.5040    -1.9010 ha         1 6U0       0.141500
     44 H17         14.3350    -2.3950    -2.5880 ha         1 6U0       0.128000
     45 H18         14.6970    -2.8650    -4.9790 ha         1 6U0       0.123000
     46 H19         13.6360    -1.4510    -6.6960 ha         1 6U0       0.128000
     47 H20         12.2100     0.4420    -6.0300 ha         1 6U0       0.141500
     48 H21         10.9960     2.0700    -5.3580 hn         1 6U0       0.301700
@<TRIPOS>BOND
     1    20    19 1
     2    20    21 2
     3    19    18 2
     4    26    27 ar
     5    26    25 ar
     6    27    22 ar
     7    25    24 ar
     8    22    21 1
     9    22    23 ar
    10    21    28 1
    11    24    23 ar
    12    29    30 2
    13    29    16 1
    14    30    14 1
    15    18    28 1
    16    18    17 1
    17    16    17 1
    18    16    15 1
    19    14    13 1
    20    14    15 2
    21    13     8 1
    22    13    11 1
    23     8     7 1
    24    12    11 1
    25    11     9 1
    26    10     9 1
    27     7     9 1
    28     7     6 1
    29     5     6 1
    30     5     2 1
    31     4     2 1
    32     2     3 1
    33     2     1 1
    34     6    31 1
    35     6    32 1
    36     7    33 1
    37     9    34 1
    38    10    35 1
    39    11    36 1
    40    12    37 1
    41    13    38 1
    42    15    39 1
    43    17    40 1
    44    17    41 1
    45    19    42 1
    46    23    43 1
    47    24    44 1
    48    25    45 1
    49    26    46 1
    50    27    47 1
    51    28    48 1
@<TRIPOS>SUBSTRUCTURE
     1 6U0         1 TEMP              0 ****  ****    0 ROOT
