@<TRIPOS>MOLECULE
molecule
   46    49     1     0     0
SMALL
bcc


@<TRIPOS>ATOM
      1 C1           0.0000     0.0000     0.0000 c3         1 6U1      -0.245300
      2 C6           1.9060     2.6420     0.1310 ca         1 6U1       0.130600
      3 C8           1.8160     3.8310     2.2130 ca         1 6U1      -0.107000
      4 C9           1.2800     4.9270     1.5610 ca         1 6U1      -0.118000
      5 C11          1.3630     3.7430    -0.5180 ca         1 6U1      -0.131000
      6 C18          3.8450    10.2730    -3.8320 cc         1 6U1       0.501100
      7 C21          3.8840    11.3860    -4.8120 cd         1 6U1      -0.191000
      8 C25          3.2580    13.0110    -6.3160 ca         1 6U1       0.464800
      9 C26          2.7330    12.0040    -5.4850 ca         1 6U1      -0.196100
     10 C28          0.5520    12.5890    -6.2440 ca         1 6U1      -0.292300
     11 S2           1.8140     0.0000     0.0000 s6         1 6U1       1.327900
     12 O3           2.3120     0.0000     1.3310 o          1 6U1      -0.627300
     13 O4           2.3120    -0.9120    -0.9680 o          1 6U1      -0.627300
     14 N5           2.2270     1.4910    -0.5910 nu         1 6U1      -0.769500
     15 C7           2.1340     2.6910     1.5010 ca         1 6U1      -0.155000
     16 C10          1.0520     4.8810     0.1980 ca         1 6U1      -0.056300
     17 C13          1.5720     6.9810    -0.9770 c          1 6U1       0.639100
     18 O14          2.7290     6.6830    -0.7610 o          1 6U1      -0.592100
     19 N15          1.2810     8.1190    -1.6370 ns         1 6U1      -0.565400
     20 C16          2.8180     8.7300    -2.5850 cd         1 6U1       0.569300
     21 N17          2.7170     9.6910    -3.4450 nc         1 6U1      -0.718000
     22 C19          4.9520     9.7600    -3.2630 cd         1 6U1      -0.251400
     23 S20          4.4570     8.4620    -2.1800 ss         1 6U1      -0.028300
     24 C22          4.9860    12.0360    -5.2540 cc         1 6U1      -0.074100
     25 N23          4.6220    13.0080    -6.1480 na         1 6U1      -0.275100
     26 C27          1.3550    11.7910    -5.4510 ca         1 6U1      -0.031000
     27 C29          1.1370    13.5630    -7.0390 ca         1 6U1       0.450200
     28 N30          2.4390    13.7480    -7.0560 nb         1 6U1      -0.717000
     29 H1          -0.3610    -1.0210    -0.0000 h1         1 6U1       0.100033
     30 H2          -0.3610     0.5110    -0.8840 h1         1 6U1       0.100033
     31 H3          -0.3610     0.5110     0.8850 h1         1 6U1       0.100033
     32 H4           1.9930     3.8700     3.2810 ha         1 6U1       0.139000
     33 H5           1.0330     5.8220     2.1210 ha         1 6U1       0.133000
     34 H6           1.1840     3.7080    -1.5860 ha         1 6U1       0.132000
     35 H7          -0.1190     5.7440    -1.3570 hc         1 6U1       0.068700
     36 H8          -0.1790     6.6180     0.1790 hc         1 6U1       0.068700
     37 H9          -0.5230    12.4550    -6.2460 ha         1 6U1       0.138000
     38 H10          2.7250     1.5660    -1.4560 hn         1 6U1       0.467800
     39 H11          2.5550     1.8330     2.0110 ha         1 6U1       0.185000
     40 H12          0.3270     8.3660    -1.8110 hn         1 6U1       0.325500
     41 H13          5.9690    10.0860    -3.4420 h4         1 6U1       0.181000
     42 H14          6.0030    11.8210    -4.9460 h4         1 6U1       0.172000
     43 H24          5.2580    13.6240    -6.6150 hn         1 6U1       0.307700
     44 H15          0.9250    11.0220    -4.8200 ha         1 6U1       0.157000
     45 H16          0.5060    14.1880    -7.6600 h4         1 6U1       0.023100
     46 C12          0.4620     6.0760    -0.5050 c3         1 6U1      -0.110100
@<TRIPOS>BOND
     1    25    24 1
     2    25     8 1
     3    28     8 ar
     4    28    27 ar
     5    24     7 2
     6     8     9 ar
     7    27    10 ar
     8     7     9 1
     9     7     6 1
    10     9    26 ar
    11    10    26 ar
    12    22     6 2
    13    22    23 1
    14     6    21 1
    15    21    20 2
    16    23    20 1
    17    20    19 1
    18    19    17 1
    19    18    17 2
    20    17    46 1
    21    46    16 1
    22    16     4 ar
    23    16     5 ar
    24     4     3 ar
    25     5     2 ar
    26     3    15 ar
    27     2    15 ar
    28     2    14 1
    29    14    11 1
    30    11    13 2
    31    11     1 1
    32    11    12 2
    33     1    29 1
    34     1    30 1
    35     1    31 1
    36     3    32 1
    37     4    33 1
    38     5    34 1
    39    46    35 1
    40    46    36 1
    41    10    37 1
    42    14    38 1
    43    15    39 1
    44    19    40 1
    45    22    41 1
    46    24    42 1
    47    25    43 1
    48    26    44 1
    49    27    45 1
@<TRIPOS>SUBSTRUCTURE
     1 6U1         1 TEMP              0 ****  ****    0 ROOT
