@<TRIPOS>MOLECULE
6U2
   65    69     1     0     0
SMALL
bcc


@<TRIPOS>ATOM
      1 C1           0.0000     0.0000     0.0000 c3         1 6U2       0.189100
      2 C3           2.4220     0.0000     0.0000 c3         1 6U2       0.155300
      3 C4           3.6560     0.0000     0.9050 c3         1 6U2       0.149300
      4 C6           2.4470     1.2910     2.5570 c3         1 6U2       0.149300
      5 C7           1.2130     1.2910     1.6520 c3         1 6U2       0.155300
      6 C8           4.8690     1.2920     2.5560 c3         1 6U2       0.160800
      7 C9           4.9590     2.6740     3.2050 c3         1 6U2      -0.045400
      8 C10          6.2200     2.7520     4.0680 c3         1 6U2       0.204400
      9 C12          7.3730     4.2780     5.4790 ca         1 6U2       0.158100
     10 C13          8.3230     3.2860     5.6800 ca         1 6U2      -0.208000
     11 N2           1.2110     0.0730     0.8290 n3         1 6U2      -0.550600
     12 N5           3.6580     1.2180     1.7270 n3         1 6U2      -0.542600
     13 O11          6.3040     4.0420     4.6740 os         1 6U2      -0.305900
     14 C14          9.4090     3.5280     6.5000 ca         1 6U2      -0.051000
     15 C15          9.5500     4.7560     7.1170 ca         1 6U2      -0.128000
     16 C16          8.6070     5.7460     6.9180 ca         1 6U2      -0.039300
     17 C17          7.5160     5.5080     6.1040 ca         1 6U2      -0.126000
     18 C18          8.7630     7.0840     7.5930 c3         1 6U2      -0.031100
     19 C19          9.5530     8.0080     6.7000 c          1 6U2       0.538100
     20 O20          9.9480     7.6170     5.6220 o          1 6U2      -0.586100
     21 N21          9.8190     9.2670     7.1000 ns         1 6U2      -0.064400
     22 C22         10.5470    10.1180     6.2770 cc         1 6U2       0.404300
     23 N23         10.8550    11.3410     6.5670 nd         1 6U2      -0.621000
     24 C24         11.5570    12.0150     5.6640 cd         1 6U2       0.466100
     25 C25         11.8510    11.3080     4.5570 cc         1 6U2      -0.177400
     26 S26         11.1680     9.6950     4.7410 ss         1 6U2      -0.216300
     27 C27         11.9770    13.4240     5.8570 cd         1 6U2      -0.182000
     28 C28         12.6880    14.1820     4.9880 cc         1 6U2      -0.253100
     29 N29         12.8800    15.4310     5.5170 na         1 6U2       0.265900
     30 C31         12.2940    15.5180     6.7580 ca         1 6U2       0.226800
     31 C32         11.6980    14.2720     7.0250 ca         1 6U2      -0.192100
     32 C33         11.0240    14.0770     8.2310 ca         1 6U2      -0.003000
     33 C34         10.9700    15.1310     9.1240 ca         1 6U2      -0.260300
     34 C35         11.5810    16.3330     8.7960 ca         1 6U2       0.417200
     35 N36         12.2080    16.4960     7.6500 nb         1 6U2      -0.583000
     36 H1           0.0080    -0.9210    -0.5700 h1         1 6U2       0.000033
     37 H2          -0.8760     0.0230     0.6370 h1         1 6U2       0.000033
     38 H3          -0.0250     0.8440    -0.6790 h1         1 6U2       0.000033
     39 H4           2.4590     0.8580    -0.6600 h1         1 6U2       0.014200
     40 H5           2.4030    -0.9120    -0.5840 h1         1 6U2       0.014200
     41 H6           4.5510    -0.0230     0.2930 h1         1 6U2       0.015950
     42 H7           3.6300    -0.8700     1.5490 h1         1 6U2       0.015950
     43 H8           2.4100     0.4330     3.2170 h1         1 6U2       0.015950
     44 H9           2.4660     2.2030     3.1410 h1         1 6U2       0.015950
     45 H10          1.2390     2.1610     1.0070 h1         1 6U2       0.014200
     46 H11          0.3190     1.3150     2.2630 h1         1 6U2       0.014200
     47 H12          5.7410     1.1260     1.9360 h1         1 6U2       0.008700
     48 H13          4.8250     0.5330     3.3280 h1         1 6U2       0.008700
     49 H14          4.0860     2.8400     3.8240 hc         1 6U2       0.033200
     50 H15          5.0030     3.4330     2.4330 hc         1 6U2       0.033200
     51 H16          6.1760     1.9930     4.8400 h1         1 6U2       0.001200
     52 H17          7.0930     2.5860     3.4490 h1         1 6U2       0.001200
     53 H18          8.2120     2.3230     5.1960 ha         1 6U2       0.119000
     54 H21         10.1500     2.7540     6.6580 ha         1 6U2       0.100000
     55 H22         10.4040     4.9440     7.7580 ha         1 6U2       0.105000
     56 H23          6.7760     6.2850     5.9480 ha         1 6U2       0.117000
     57 H24          7.7850     7.5120     7.7790 hc         1 6U2       0.034700
     58 H25          9.2860     6.9560     8.5330 hc         1 6U2       0.034700
     59 H26          9.4920     9.5890     7.9890 hn         1 6U2       0.175500
     60 H27         12.4130    11.6670     3.7030 h4         1 6U2       0.159000
     61 H28         13.0490    13.8510     4.0220 h4         1 6U2       0.145000
     62 H30         13.3770    16.1730     5.0650 hn         1 6U2       0.118700
     63 H29         10.5560    13.1280     8.4600 ha         1 6U2       0.121000
     64 H31         10.4600    15.0180    10.0720 ha         1 6U2       0.112000
     65 H32         11.5370    17.1570     9.4980 h4         1 6U2      -0.023900
@<TRIPOS>BOND
     1     1    11 1   
     2     1    36 1   
     3     1    37 1   
     4     1    38 1   
     5     2     3 1   
     6     2    11 1   
     7     2    39 1   
     8     2    40 1   
     9     3    12 1   
    10     3    41 1   
    11     3    42 1   
    12     4     5 1   
    13     4    12 1   
    14     4    43 1   
    15     4    44 1   
    16     5    11 1   
    17     5    45 1   
    18     5    46 1   
    19     6     7 1   
    20     6    12 1   
    21     6    47 1   
    22     6    48 1   
    23     7     8 1   
    24     7    49 1   
    25     7    50 1   
    26     8    13 1   
    27     8    51 1   
    28     8    52 1   
    29     9    10 ar  
    30     9    13 1   
    31     9    17 ar  
    32    10    14 ar  
    33    10    53 1   
    34    14    15 ar  
    35    14    54 1   
    36    15    16 ar  
    37    15    55 1   
    38    16    17 ar  
    39    16    18 1   
    40    17    56 1   
    41    18    19 1   
    42    18    57 1   
    43    18    58 1   
    44    19    20 2   
    45    19    21 1   
    46    21    22 1   
    47    21    59 1   
    48    22    23 2   
    49    22    26 1   
    50    23    24 1   
    51    24    25 2   
    52    24    27 1   
    53    25    26 1   
    54    25    60 1   
    55    27    28 2   
    56    27    31 1   
    57    28    29 1   
    58    28    61 1   
    59    29    30 1   
    60    29    62 1   
    61    30    31 ar  
    62    30    35 ar  
    63    31    32 ar  
    64    32    33 ar  
    65    32    63 1   
    66    33    34 ar  
    67    33    64 1   
    68    34    35 ar  
    69    34    65 1   
@<TRIPOS>SUBSTRUCTURE
     1 6U2         1 TEMP              0 ****  ****    0 ROOT
