@<TRIPOS>MOLECULE
6U4
   44    46     1     0     0
SMALL
bcc


@<TRIPOS>ATOM
      1 PG           0.0000     0.0000     0.0000 p5         1 6U4       0.878900
      2 O3G          1.6100     0.0000     0.0000 o          1 6U4      -0.453833
      3 O2G         -0.5370     0.0000     1.5190 o          1 6U4      -0.453833
      4 O1G         -0.4930     1.2080    -0.6980 o          1 6U4      -0.453833
      5 PB          -1.9350    -1.7170    -1.4480 p5         1 6U4       1.095800
      6 O1B         -3.0210    -2.0430    -0.3050 o          1 6U4      -0.478000
      7 O2B         -2.4160    -0.5920    -2.2790 o          1 6U4      -0.478000
      8 O3B         -0.5360    -1.3150    -0.7590 os         1 6U4      -0.468800
      9 PA          -2.5440    -3.6640    -3.5980 p5         1 6U4       0.983800
     10 O2A         -3.8640    -4.3930    -3.0340 o          1 6U4      -0.681500
     11 O1A         -2.9370    -2.5970    -4.5460 o          1 6U4      -0.681500
     12 O3A         -1.7220    -3.0170    -2.3740 os         1 6U4      -0.492800
     13 O5'         -1.6180    -4.7410    -4.3560 os         1 6U4      -0.495200
     14 C5'         -2.0240    -5.4130    -5.5500 c3         1 6U4       0.316400
     15 C4'         -0.9140    -6.3630    -6.0040 c3         1 6U4       0.147100
     16 O4'         -0.7970    -7.4730    -5.0860 os         1 6U4      -0.371600
     17 C3'         -1.2770    -7.0070    -7.3590 c3         1 6U4       0.149100
     18 O3'         -0.6280    -6.3190    -8.4300 oh         1 6U4      -0.585800
     19 C2'         -0.7440    -8.4530    -7.2430 c3         1 6U4      -0.113400
     20 C1'         -0.1220    -8.5110    -5.8300 c3         1 6U4       0.160800
     21 N9          -0.3690    -9.8190    -5.2180 na         1 6U4       0.254100
     22 C8          -1.5890   -10.3590    -4.9290 cc         1 6U4       0.083400
     23 N7          -1.4430   -11.5320    -4.3920 nd         1 6U4      -0.661000
     24 C5          -0.1190   -11.8240    -4.3010 cd         1 6U4       0.128300
     25 C6           0.6100   -12.9150    -3.8210 cc         1 6U4      -0.789400
     26 N6          -0.0280   -14.0060    -3.2970 nz         1 6U4       0.474600
     27 N1           1.9720   -12.8660    -3.8890 ns         1 6U4      -0.041100
     28 C2           2.5900   -11.7910    -4.4060 c          1 6U4       0.772900
     29 N3           1.9130   -10.7460    -4.8650 nc         1 6U4      -0.550400
     30 C4           0.5840   -10.7260    -4.8370 cd         1 6U4      -0.144600
     31 O2           3.8110   -11.7740    -4.4540 o          1 6U4      -0.857500
     32 H5          -2.2150    -4.6830    -6.3280 h1         1 6U4      -0.020800
     33 H6          -2.9270    -5.9790    -5.3570 h1         1 6U4      -0.020800
     34 H7           0.0310    -5.8380    -6.0790 h1         1 6U4       0.030700
     35 H8          -2.3510    -7.0110    -7.4990 h1         1 6U4       0.004700
     36 H9          -1.2120    -6.2630    -9.1680 ho         1 6U4       0.366000
     37 H10         -1.5580    -9.1630    -7.3270 hc         1 6U4       0.029200
     38 H11          0.0110    -8.6400    -7.9970 hc         1 6U4       0.029200
     39 H12          0.9410    -8.3060    -5.8800 h2         1 6U4       0.053700
     40 H13         -2.4040    -9.7170    -4.6150 h5         1 6U4       0.013100
     41 H14         -0.8310   -14.2230    -3.8540 hn         1 6U4       0.072133
     42 H15         -0.3160   -13.8060    -2.3600 hn         1 6U4       0.072133
     43 H16          2.5140   -13.6370    -3.5510 hn         1 6U4       0.103500
     44 H63          0.5970   -14.7880    -3.2940 hn         1 6U4       0.072133
@<TRIPOS>BOND
     1     1     2 1   
     2     1     3 1   
     3     1     4 1   
     4     1     8 1   
     5     5     6 1   
     6     5     7 1   
     7     5     8 1   
     8     5    12 1   
     9     9    10 1   
    10     9    11 1   
    11     9    12 1   
    12     9    13 1   
    13    13    14 1   
    14    14    15 1   
    15    14    32 1   
    16    14    33 1   
    17    15    16 1   
    18    15    17 1   
    19    15    34 1   
    20    16    20 1   
    21    17    18 1   
    22    17    19 1   
    23    17    35 1   
    24    18    36 1   
    25    19    20 1   
    26    19    37 1   
    27    19    38 1   
    28    20    21 1   
    29    20    39 1   
    30    21    22 1   
    31    21    30 1   
    32    22    23 2   
    33    22    40 1   
    34    23    24 1   
    35    24    25 2   
    36    24    30 1   
    37    25    26 1   
    38    25    27 1   
    39    26    41 1   
    40    26    42 1   
    41    26    44 1   
    42    27    28 1   
    43    27    43 1   
    44    28    29 1   
    45    28    31 2   
    46    29    30 2   
@<TRIPOS>SUBSTRUCTURE
     1 6U4         1 TEMP              0 ****  ****    0 ROOT
