@<TRIPOS>MOLECULE
6U5
   35    36     1     0     0
SMALL
bcc


@<TRIPOS>ATOM
      1 N1           0.0000     0.0000     0.0000 nc         1 6U5      -0.618100
      2 C4           1.9460     0.0000     4.1530 ca         1 6U5       0.077600
      3 C5           3.0980     0.0000     3.3650 ca         1 6U5      -0.169000
      4 C6           3.0070     0.0010     2.0040 ca         1 6U5      -0.008000
      5 C7           1.7490     0.0000     1.3890 ca         1 6U5      -0.269900
      6 C8           1.3020     0.0000     0.0000 cd         1 6U5       0.432800
      7 C10          0.5820    -0.0000     2.1790 ca         1 6U5      -0.161200
      8 O1           0.4880    -1.8140     5.9400 o          1 6U5      -0.583800
      9 S            1.7620    -1.3860     6.4010 s6         1 6U5       0.951900
     10 O            1.9630    -1.0110     7.7560 o          1 6U5      -0.583800
     11 C3           3.0540    -2.5380     5.8590 c3         1 6U5      -0.012600
     12 C2           2.8140    -3.9090     6.4940 c3         1 6U5       0.003600
     13 C1           3.9040    -4.8810     6.0370 c3         1 6U5      -0.027400
     14 C            3.6640    -6.2510     6.6720 c3         1 6U5       0.007900
     15 N            2.0590     0.0010     5.5450 nu         1 6U5      -0.434500
     16 C11          0.6930    -0.0000     3.5660 ca         1 6U5      -0.100000
     17 N2          -0.4810    -0.0010     1.3130 na         1 6U5       0.456900
     18 C9          -1.8930    -0.0010     1.7020 c3         1 6U5       0.034600
     19 H1           4.0720     0.0050     3.8380 ha         1 6U5       0.109000
     20 H2           3.9060     0.0010     1.4000 ha         1 6U5       0.101000
     21 H3           1.9400     0.0010    -0.8750 h4         1 6U5       0.013800
     22 H4           3.0260    -2.6300     4.7800 h1         1 6U5       0.070200
     23 H5           4.0230    -2.1630     6.1640 h1         1 6U5       0.070200
     24 H6           2.8420    -3.8170     7.5730 hc         1 6U5       0.028700
     25 H7           1.8450    -4.2840     6.1880 hc         1 6U5       0.028700
     26 H8           4.8730    -4.5060     6.3430 hc         1 6U5       0.013200
     27 H9           3.8760    -4.9730     4.9580 hc         1 6U5       0.013200
     28 H10          2.6940    -6.6260     6.3660 hc         1 6U5       0.002700
     29 H11          3.6920    -6.1590     7.7510 hc         1 6U5       0.002700
     30 H12          4.4350    -6.9400     6.3480 hc         1 6U5       0.002700
     31 H13          2.2920     0.8460     6.0280 hn         1 6U5       0.352800
     32 H14         -0.1970    -0.0000     4.1840 ha         1 6U5       0.133000
     33 H15         -2.5120     0.0110     0.8130 h1         1 6U5       0.019700
     34 H16         -2.1030     0.8770     2.3000 h1         1 6U5       0.019700
     35 H17         -2.1080    -0.8920     2.2800 h1         1 6U5       0.019700
@<TRIPOS>BOND
     1     1     6 2   
     2     1    17 1   
     3     2     3 ar  
     4     2    15 1   
     5     2    16 ar  
     6     3     4 ar  
     7     3    19 1   
     8     4     5 ar  
     9     4    20 1   
    10     5     6 1   
    11     5     7 ar  
    12     6    21 1   
    13     7    16 ar  
    14     7    17 1   
    15     8     9 2   
    16     9    10 2   
    17     9    11 1   
    18     9    15 1   
    19    11    12 1   
    20    11    22 1   
    21    11    23 1   
    22    12    13 1   
    23    12    24 1   
    24    12    25 1   
    25    13    14 1   
    26    13    26 1   
    27    13    27 1   
    28    14    28 1   
    29    14    29 1   
    30    14    30 1   
    31    15    31 1   
    32    16    32 1   
    33    17    18 1   
    34    18    33 1   
    35    18    34 1   
    36    18    35 1   
@<TRIPOS>SUBSTRUCTURE
     1 6U5         1 TEMP              0 ****  ****    0 ROOT
