@<TRIPOS>MOLECULE
molecule
   22    23     1     0     0
SMALL
bcc


@<TRIPOS>ATOM
      1 C9           0.0000     0.0000     0.0000 ca         1 6U6      -0.081100
      2 C1          -4.4190     1.4200    -0.7160 c3         1 6U6      -0.181400
      3 C3          -2.4620    -0.0130    -0.2010 cc         1 6U6       0.458200
      4 C2          -3.9180    -0.0200    -0.5900 c3         1 6U6      -0.083700
      5 C5           0.0200    -0.0010     2.4150 ca         1 6U6      -0.079000
      6 C8           1.3930     0.0000     0.0000 ca         1 6U6      -0.072000
      7 O1          -6.5300     2.5720    -1.2740 o          1 6U6      -0.848300
      8 C7           2.0830     0.0000     1.1910 ca         1 6U6      -0.142000
      9 C6           1.3930    -0.0010     2.3960 ca         1 6U6       0.026400
     10 C4          -0.7080    -0.0070     1.2070 ca         1 6U6       0.149400
     11 Cl           2.2730     0.0050     3.8920 cl         1 6U6      -0.127400
     12 N           -2.0400    -0.0080     1.0060 nd         1 6U6      -0.603100
     13 S           -1.1700    -0.0010    -1.3160 ss         1 6U6      -0.120100
     14 C           -5.8740     1.4130    -1.1050 c          1 6U6       0.892600
     15 O           -6.4520     0.3640    -1.2650 o          1 6U6      -0.848300
     16 H1          -4.3020     1.9270     0.2340 hc         1 6U6       0.040200
     17 H2          -3.8450     1.9370    -1.4750 hc         1 6U6       0.040200
     18 H3          -4.0350    -0.5270    -1.5400 hc         1 6U6       0.077200
     19 H4          -4.4920    -0.5370     0.1690 hc         1 6U6       0.077200
     20 H5          -0.5060    -0.0010     3.3610 ha         1 6U6       0.155000
     21 H6           1.9330     0.0010    -0.9390 ha         1 6U6       0.133000
     22 H8           3.1670     0.0000     1.1880 ha         1 6U6       0.136000
@<TRIPOS>BOND
     1    11     9 1
     2     5     9 ar
     3     5    10 ar
     4     9     8 ar
     5    12    10 1
     6    12     3 2
     7    10     1 ar
     8    15    14 1
     9     2     4 1
    10     2    14 1
    11     8     6 ar
    12     3     4 1
    13     3    13 1
    14     1     6 ar
    15     1    13 1
    16    14     7 1
    17     2    16 1
    18     2    17 1
    19     4    18 1
    20     4    19 1
    21     5    20 1
    22     6    21 1
    23     8    22 1
@<TRIPOS>SUBSTRUCTURE
     1 6U6         1 TEMP              0 ****  ****    0 ROOT
