@<TRIPOS>MOLECULE
6U7
   50    53     1     0     0
SMALL
bcc


@<TRIPOS>ATOM
      1 C4           0.0000     0.0000     0.0000 ca         1 6U7       0.539200
      2 C5           1.4150     0.0000     0.0000 ca         1 6U7      -0.307600
      3 C6           2.0840     0.0000     1.2490 ca         1 6U7       0.452600
      4 N1           1.3510     0.0010     2.3730 nb         1 6U7      -0.674000
      5 N3          -0.6270     0.0010     1.1690 nb         1 6U7      -0.720000
      6 CBB          6.1710    -0.0020     1.4110 c3         1 6U7       0.239700
      7 CAG          4.1890    -0.0010     0.0980 ca         1 6U7       0.166100
      8 CAF          3.4840    -0.0010     1.2810 ca         1 6U7      -0.259300
      9 CAH          3.5200    -0.0020    -1.1350 ca         1 6U7       0.126100
     10 OAY          4.2380    -0.0030    -2.2900 os         1 6U7      -0.289900
     11 CAZ          3.5000    -0.0030    -3.5130 c3         1 6U7       0.241700
     12 CAC          2.1550    -0.0010    -1.1880 ca         1 6U7      -0.172000
     13 C2           0.0400     0.0010     2.3120 ca         1 6U7       0.674900
     14 NAK         -0.7080     0.0060    -1.1840 nu         1 6U7      -0.279300
     15 CAL         -2.1020    -0.1220    -1.1660 ca         1 6U7      -0.010400
     16 CAQ         -2.8580     0.3690    -2.2220 ca         1 6U7      -0.117300
     17 CBC         -2.1790     1.0450    -3.3850 c3         1 6U7       0.063200
     18 CAP         -4.2330     0.2380    -2.2070 ca         1 6U7      -0.109000
     19 CAM         -2.7300    -0.7450    -0.0950 ca         1 6U7      -0.106000
     20 CAN         -4.1040    -0.8710    -0.0780 ca         1 6U7      -0.092000
     21 CAO         -4.8580    -0.3840    -1.1360 ca         1 6U7       0.089100
     22 OAR         -6.2110    -0.5120    -1.1210 os         1 6U7      -0.219200
     23 CAS         -6.7730    -1.4550    -1.9230 ca         1 6U7       0.146100
     24 CAT         -8.1390    -1.6870    -1.8720 ca         1 6U7      -0.172500
     25 CAU         -8.7080    -2.6430    -2.6920 ca         1 6U7      -0.061000
     26 CAV         -7.9150    -3.3670    -3.5640 ca         1 6U7      -0.144000
     27 CAW         -6.5530    -3.1360    -3.6180 ca         1 6U7      -0.061000
     28 CAX         -5.9800    -2.1820    -2.8000 ca         1 6U7      -0.172500
     29 H1           5.8950     0.8980     1.9460 h1         1 6U7       0.001367
     30 H2           5.8430    -0.8700     1.9710 h1         1 6U7       0.001367
     31 H3           7.2470    -0.0360     1.2910 h1         1 6U7       0.001367
     32 H4           4.0050     0.1270     2.2220 ha         1 6U7       0.143000
     33 H5           4.1880    -0.0230    -4.3500 h1         1 6U7      -0.002633
     34 H6           2.8610    -0.8770    -3.5490 h1         1 6U7      -0.002633
     35 H7           2.8920     0.8920    -3.5670 h1         1 6U7      -0.002633
     36 H8           1.6480    -0.0020    -2.1450 ha         1 6U7       0.122000
     37 H9          -0.5210     0.0020     3.2390 h5         1 6U7      -0.004900
     38 H10         -0.2230     0.0670    -2.0570 hn         1 6U7       0.292800
     39 H11         -1.6230     0.3110    -3.9550 hc         1 6U7       0.008033
     40 H12         -2.9250     1.5060    -4.0210 hc         1 6U7       0.008033
     41 H13         -1.5010     1.8050    -3.0160 hc         1 6U7       0.008033
     42 H14         -4.8220     0.6190    -3.0310 ha         1 6U7       0.122000
     43 H15         -2.1410    -1.1250     0.7310 ha         1 6U7       0.158000
     44 H16         -4.5940    -1.3570     0.7570 ha         1 6U7       0.118000
     45 H17         -8.7600    -1.1210    -1.1890 ha         1 6U7       0.121500
     46 H18         -9.7750    -2.8250    -2.6520 ha         1 6U7       0.100500
     47 H19         -8.3630    -4.1150    -4.2070 ha         1 6U7       0.104000
     48 H20         -5.9350    -3.7050    -4.3020 ha         1 6U7       0.100500
     49 H21         -4.9120    -2.0020    -2.8420 ha         1 6U7       0.121500
     50 OBA          5.5480    -0.0030     0.1250 os         1 6U7      -0.291900
@<TRIPOS>BOND
     1     1     2 ar  
     2     1     5 ar  
     3     1    14 1   
     4     2     3 ar  
     5     2    12 ar  
     6     3     4 ar  
     7     3     8 ar  
     8     4    13 ar  
     9     5    13 ar  
    10     6    29 1   
    11     6    30 1   
    12     6    31 1   
    13     6    50 1   
    14     7     8 ar  
    15     7     9 ar  
    16     7    50 1   
    17     8    32 1   
    18     9    10 1   
    19     9    12 ar  
    20    10    11 1   
    21    11    33 1   
    22    11    34 1   
    23    11    35 1   
    24    12    36 1   
    25    13    37 1   
    26    14    15 1   
    27    14    38 1   
    28    15    16 ar  
    29    15    19 ar  
    30    16    17 1   
    31    16    18 ar  
    32    17    39 1   
    33    17    40 1   
    34    17    41 1   
    35    18    21 ar  
    36    18    42 1   
    37    19    20 ar  
    38    19    43 1   
    39    20    21 ar  
    40    20    44 1   
    41    21    22 1   
    42    22    23 1   
    43    23    24 ar  
    44    23    28 ar  
    45    24    25 ar  
    46    24    45 1   
    47    25    26 ar  
    48    25    46 1   
    49    26    27 ar  
    50    26    47 1   
    51    27    28 ar  
    52    27    48 1   
    53    28    49 1   
@<TRIPOS>SUBSTRUCTURE
     1 6U7         1 TEMP              0 ****  ****    0 ROOT
