@<TRIPOS>MOLECULE
molecule
   63    64     1     0     0
SMALL
bcc


@<TRIPOS>ATOM
      1 C01          0.0000     0.0000     0.0000 c3         1 6U8       0.127700
      2 O02          1.4290     0.0000     0.0000 os         1 6U8      -0.313900
      3 C03          2.0460     0.0000     1.2110 ca         1 6U8       0.113100
      4 C04          3.4350     0.0000     1.2860 ca         1 6U8       0.117100
      5 O05          4.1790     0.0010     0.1470 os         1 6U8      -0.314900
      6 C06          5.6000     0.0010     0.3000 c3         1 6U8       0.127700
      7 C07          4.0600    -0.0000     2.5220 ca         1 6U8      -0.185000
      8 C08          3.3030    -0.0000     3.6780 ca         1 6U8      -0.085300
      9 C09          3.9840    -0.0010     5.0230 c3         1 6U8      -0.031100
     10 C10          4.2140     1.4420     5.4780 c3         1 6U8       0.164800
     11 N11          4.8780     1.4410     6.7890 n3         1 6U8      -0.732600
     12 C12          3.9990     0.8840     7.8240 c3         1 6U8       0.142100
     13 C13          5.3290     2.7910     7.1520 c3         1 6U8       0.162800
     14 C14          6.2260     2.7150     8.3880 c3         1 6U8      -0.093400
     15 C15          6.6950     4.1220     8.7660 c3         1 6U8      -0.074400
     16 C16          7.4950     4.0600    10.0680 c3         1 6U8       0.058400
     17 C17          6.6520     3.5000    11.1370 c1         1 6U8       0.226700
     18 N18          6.0000     3.0860    11.9700 n1         1 6U8      -0.368800
     19 C19          8.7250     3.1710     9.8700 c3         1 6U8      -0.060700
     20 C20          9.5830     3.7350     8.7360 c3         1 6U8      -0.105600
     21 C21          9.5430     3.1380    11.1610 c3         1 6U8      -0.105600
     22 C22          7.9370     5.4480    10.4530 ca         1 6U8      -0.051300
     23 C23          8.0550     6.4290     9.4860 ca         1 6U8      -0.122000
     24 C24          8.4600     7.7030     9.8390 ca         1 6U8      -0.114000
     25 C27          8.7460     7.9970    11.1580 ca         1 6U8      -0.125000
     26 C30          8.6280     7.0180    12.1270 ca         1 6U8      -0.098000
     27 C31          8.2170     5.7440    11.7750 ca         1 6U8      -0.015900
     28 Br32         8.0550     4.4040    13.0990 br         1 6U8      -0.067100
     29 C32          1.9220    -0.0010     3.6050 ca         1 6U8      -0.126000
     30 C33          1.2930     0.0050     2.3740 ca         1 6U8      -0.188000
     31 H1          -0.3610     0.0010    -1.0210 h1         1 6U8       0.039700
     32 H2          -0.3610    -0.8850     0.5100 h1         1 6U8       0.039700
     33 H3          -0.3610     0.8840     0.5110 h1         1 6U8       0.039700
     34 H4           5.9100    -0.9120     0.7930 h1         1 6U8       0.040033
     35 H5           5.8980     0.8540     0.8980 h1         1 6U8       0.040033
     36 H6           6.0680     0.0630    -0.6750 h1         1 6U8       0.040033
     37 H7           5.1420    -0.0000     2.5820 ha         1 6U8       0.142000
     38 H8           4.9380    -0.5100     4.9450 hc         1 6U8       0.056200
     39 H9           3.3590    -0.5140     5.7440 hc         1 6U8       0.056200
     40 H10          4.8830     1.9370     4.7850 h1         1 6U8       0.036700
     41 H11          3.2670     1.9670     5.5050 h1         1 6U8       0.036700
     42 H13          4.4320    -0.0300     8.2130 h1         1 6U8       0.035700
     43 H14          3.0270     0.6690     7.3950 h1         1 6U8       0.035700
     44 H15          3.8870     1.6020     8.6280 h1         1 6U8       0.035700
     45 H16          5.9250     3.2010     6.3450 h1         1 6U8       0.033200
     46 H17          4.4670     3.4250     7.3230 h1         1 6U8       0.033200
     47 H18          6.9370     1.9070     8.2690 hc         1 6U8       0.060200
     48 H19          5.6170     2.5340     9.2660 hc         1 6U8       0.060200
     49 H20          7.3400     4.5090     7.9870 hc         1 6U8       0.055700
     50 H21          5.8350     4.7710     8.8790 hc         1 6U8       0.055700
     51 H24          8.4200     2.2240     9.4400 hc         1 6U8       0.069700
     52 H25         10.0970     2.9240     8.2340 hc         1 6U8       0.043700
     53 H26          8.9500     4.2550     8.0270 hc         1 6U8       0.043700
     54 H27         10.3110     4.4270     9.1430 hc         1 6U8       0.043700
     55 H28          9.9650     4.1180    11.3470 hc         1 6U8       0.043700
     56 H29         10.3430     2.4140    11.0630 hc         1 6U8       0.043700
     57 H30          8.9020     2.8580    11.9880 hc         1 6U8       0.043700
     58 H31          7.8310     6.2000     8.4510 ha         1 6U8       0.142000
     59 H32          8.5530     8.4720     9.0810 ha         1 6U8       0.136000
     60 H33          9.0630     8.9950    11.4350 ha         1 6U8       0.138000
     61 H34          8.8520     7.2490    13.1610 ha         1 6U8       0.147000
     62 H35          1.3320    -0.0000     4.5140 ha         1 6U8       0.131000
     63 H36          0.2110     0.0090     2.3180 ha         1 6U8       0.139000
@<TRIPOS>BOND
     1    13    14 1
     2    13    11 1
     3    12    11 1
     4    14    15 1
     5    11    10 1
     6    10     9 1
     7    29    30 ar
     8    29     8 ar
     9    30     3 ar
    10    15    16 1
    11     9     8 1
    12     8     7 ar
    13     1     2 1
    14     3     2 1
    15     3     4 ar
    16    28    27 1
    17    26    27 ar
    18    26    25 ar
    19    27    22 ar
    20    18    17 3
    21     7     4 ar
    22    25    24 ar
    23     4     5 1
    24    22    16 1
    25    22    23 ar
    26    24    23 ar
    27    16    17 1
    28    16    19 1
    29     5     6 1
    30    20    19 1
    31    19    21 1
    32     1    31 1
    33     1    32 1
    34     1    33 1
    35     6    34 1
    36     6    35 1
    37     6    36 1
    38     7    37 1
    39     9    38 1
    40     9    39 1
    41    10    40 1
    42    10    41 1
    43    12    42 1
    44    12    43 1
    45    12    44 1
    46    13    45 1
    47    13    46 1
    48    14    47 1
    49    14    48 1
    50    15    49 1
    51    15    50 1
    52    19    51 1
    53    20    52 1
    54    20    53 1
    55    20    54 1
    56    21    55 1
    57    21    56 1
    58    21    57 1
    59    23    58 1
    60    24    59 1
    61    25    60 1
    62    26    61 1
    63    29    62 1
    64    30    63 1
@<TRIPOS>SUBSTRUCTURE
     1 6U8         1 TEMP              0 ****  ****    0 ROOT
