@<TRIPOS>MOLECULE
molecule
   56    57     1     0     0
SMALL
bcc


@<TRIPOS>ATOM
      1 C13          0.0000     0.0000     0.0000 c3         1 6U9      -0.053900
      2 C12          1.5080     0.0000     0.0000 c2         1 6U9       0.206800
      3 C10          4.1270    -0.7270     2.5550 c3         1 6U9      -0.070900
      4 C01          9.1750     2.0590     3.2590 c3         1 6U9       0.128700
      5 O02          8.4020     1.0290     2.6420 os         1 6U9      -0.428600
      6 C03          8.7680     0.7590     1.2870 c3         1 6U9       0.135400
      7 C04          7.8790    -0.3550     0.7310 c3         1 6U9       0.146400
      8 O05          6.5250     0.1000     0.6730 os         1 6U9      -0.413900
      9 C06          5.6060    -0.7690     0.2020 c          1 6U9       0.665300
     10 O07          5.9470    -1.8840    -0.1510 o          1 6U9      -0.539000
     11 C08          4.2480    -0.3860     0.1180 ce         1 6U9      -0.245400
     12 C09          3.5030    -0.3580     1.2340 c2         1 6U9       0.157800
     13 N11          2.1830     0.0000     1.1890 nu         1 6U9      -0.628800
     14 C14          2.1710    -0.0070    -1.1690 ce         1 6U9      -0.280400
     15 C15          3.6720    -0.0050    -1.2170 c3         1 6U9       0.121000
     16 C16          4.1620     1.3700    -1.5940 ca         1 6U9      -0.081300
     17 C17          4.8950     1.5490    -2.7510 ca         1 6U9      -0.054000
     18 C18          5.3440     2.8110    -3.0960 ca         1 6U9      -0.160200
     19 C19          5.0590     3.8920    -2.2850 ca         1 6U9      -0.074000
     20 C20          4.3240     3.7130    -1.1270 ca         1 6U9      -0.139000
     21 C21          3.8720     2.4530    -0.7840 ca         1 6U9      -0.068000
     22 N22          6.1310     3.0030    -4.3360 no         1 6U9       0.295200
     23 O23          6.3820     2.0500    -5.0510 o          1 6U9      -0.210000
     24 O24          6.5260     4.1140    -4.6390 o          1 6U9      -0.210000
     25 C25          1.4400    -0.0140    -2.3800 c          1 6U9       0.670300
     26 O26          0.2240    -0.0160    -2.3560 o          1 6U9      -0.585000
     27 O27          2.0920    -0.0200    -3.5610 os         1 6U9      -0.417900
     28 C28          1.2900    -0.0290    -4.7440 c3         1 6U9       0.142100
     29 C29          2.0370     0.6870    -5.8710 c3         1 6U9      -0.103600
     30 C30          1.0060    -1.4740    -5.1580 c3         1 6U9      -0.103600
     31 H1          -0.3610     0.8650    -0.5420 hc         1 6U9       0.067700
     32 H2          -0.3610     0.0370     1.0210 hc         1 6U9       0.067700
     33 H3          -0.3610    -0.9030    -0.4780 hc         1 6U9       0.067700
     34 H5           3.3470    -0.9120     3.2830 hc         1 6U9       0.065700
     35 H6           4.7560     0.0860     2.8970 hc         1 6U9       0.065700
     36 H7           4.7270    -1.6210     2.4330 hc         1 6U9       0.065700
     37 H8          10.2150     1.7580     3.2960 h1         1 6U9       0.031033
     38 H9           8.8120     2.2280     4.2660 h1         1 6U9       0.031033
     39 H10          9.0830     2.9730     2.6840 h1         1 6U9       0.031033
     40 H11          9.8110     0.4690     1.2460 h1         1 6U9       0.039200
     41 H12          8.6170     1.6500     0.6890 h1         1 6U9       0.039200
     42 H13          8.2140    -0.6210    -0.2650 h1         1 6U9       0.058200
     43 H14          7.9420    -1.2230     1.3760 h1         1 6U9       0.058200
     44 H17          1.7100     0.2630     2.0310 hn         1 6U9       0.457800
     45 H20          4.0020    -0.7200    -1.9600 hc         1 6U9       0.087700
     46 H21          5.1190     0.7020    -3.3880 ha         1 6U9       0.171000
     47 H22          5.4120     4.8800    -2.5550 ha         1 6U9       0.162000
     48 H23          4.0990     4.5610    -0.4920 ha         1 6U9       0.144000
     49 H24          3.2960     2.3120     0.1230 ha         1 6U9       0.140000
     50 H25          0.3550     0.4810    -4.5500 h1         1 6U9       0.066700
     51 H26          1.4570     0.6250    -6.7840 hc         1 6U9       0.046867
     52 H27          2.1810     1.7270    -5.6050 hc         1 6U9       0.046867
     53 H28          3.0000     0.2160    -6.0230 hc         1 6U9       0.046867
     54 H29          0.5650    -1.4860    -6.1480 hc         1 6U9       0.046867
     55 H30          0.3200    -1.9240    -4.4510 hc         1 6U9       0.046867
     56 H31          1.9330    -2.0350    -5.1690 hc         1 6U9       0.046867
@<TRIPOS>BOND
     1    24    22 1   
     2    22    23 1   
     3    22    18 1   
     4     4     5 1   
     5     5     6 1   
     6    19    18 ar  
     7    19    20 ar  
     8     6     7 1   
     9    18    17 ar  
    10    20    21 ar  
    11    17    16 ar  
    12     7     8 1   
    13    21    16 ar  
    14     8     9 1   
    15    16    15 1   
    16     9    10 2   
    17     9    11 1   
    18    15    11 1   
    19    15    14 1   
    20    26    25 2   
    21    11    12 2   
    22    25    14 1   
    23    25    27 1   
    24    14     2 2   
    25    12     3 1   
    26    12    13 1   
    27    28    27 1   
    28    28    30 1   
    29    28    29 1   
    30     2    13 1   
    31     2     1 1   
    32     1    31 1   
    33     1    32 1   
    34     1    33 1   
    35     3    34 1   
    36     3    35 1   
    37     3    36 1   
    38     4    37 1   
    39     4    38 1   
    40     4    39 1   
    41     6    40 1   
    42     6    41 1   
    43     7    42 1   
    44     7    43 1   
    45    13    44 1   
    46    15    45 1   
    47    17    46 1   
    48    19    47 1   
    49    20    48 1   
    50    21    49 1   
    51    28    50 1   
    52    29    51 1   
    53    29    52 1   
    54    29    53 1   
    55    30    54 1   
    56    30    55 1   
    57    30    56 1   
@<TRIPOS>SUBSTRUCTURE
     1 6U9         1 TEMP              0 ****  ****    0 ROOT
