@<TRIPOS>MOLECULE
molecule
   15    15     1     0     0
SMALL
bcc


@<TRIPOS>ATOM
      1 O2           0.0000     0.0000     0.0000 o          1 6UA      -0.474500
      2 C2           1.2170     0.0000     0.0000 c          1 6UA       0.827900
      3 N3           1.8360     0.0000     1.1860 ns         1 6UA      -0.579500
      4 C4           3.1840    -0.0010     1.2780 c          1 6UA       0.705500
      5 O4           3.7470    -0.0000     2.3520 o          1 6UA      -0.504500
      6 N1           1.8350    -0.0080    -1.1820 ne         1 6UA      -0.552100
      7 C6           3.1420    -0.0100    -1.2970 c2         1 6UA       0.476200
      8 N6           3.7360    -0.0170    -2.5110 nz         1 6UA      -0.738600
      9 C5           3.9660    -0.0030    -0.0230 c3         1 6UA      -0.254700
     10 H1           1.2890     0.0000     2.0240 hn         1 6UA       0.394500
     11 H2           4.3520     0.7690    -2.5850 hn         1 6UA       0.484800
     12 H3           3.0370     0.0390    -3.2250 hn         1 6UA       0.484800
     13 H4           4.5280     0.9230    -0.0350 hc         1 6UA       0.122700
     14 H5           4.5340    -0.9250    -0.0290 hc         1 6UA       0.122700
     15 H63          4.2370    -0.8750    -2.6320 hn         1 6UA       0.484800
@<TRIPOS>BOND
     1     1     2 2   
     2     6     2 1   
     3     6     7 2   
     4     2     3 1   
     5     8     7 1   
     6     7     9 1   
     7     3     4 1   
     8     9     4 1   
     9     4     5 2   
    10     3    10 1   
    11     8    11 1   
    12     8    12 1   
    13     9    13 1   
    14     9    14 1   
    15    15     8 1   
@<TRIPOS>SUBSTRUCTURE
     1 6UA         1 TEMP              0 ****  ****    0 ROOT
