@<TRIPOS>MOLECULE
molecule
   54    55     1     0     0
SMALL
bcc


@<TRIPOS>ATOM
      1 CAA          0.0000     0.0000     0.0000 c3         1 6UB      -0.098100
      2 CAL          1.5290     0.0000     0.0000 c3         1 6UB       0.139400
      3 OAS          2.0070     0.0000     1.3470 os         1 6UB      -0.422900
      4 CAV          3.3440    -0.0000     1.5240 c          1 6UB       0.647300
      5 OAF          4.0850     0.0000     0.5580 o          1 6UB      -0.528000
      6 CAY          3.8840    -0.0000     2.8300 ce         1 6UB      -0.160400
      7 CAW          3.9390    -1.1530     3.5190 c2         1 6UB       0.111800
      8 NAP          4.4620    -1.1910     4.7840 nu         1 6UB      -0.634800
      9 CAT          5.2540    -0.1700     5.2320 c2         1 6UB       0.185800
     10 CAX          5.2560     1.0250     4.6140 ce         1 6UB      -0.250400
     11 CBB          4.3910     1.2870     3.4160 c3         1 6UB       0.101000
     12 CBA          3.2150     2.1340     3.8300 ca         1 6UB      -0.086300
     13 CAK          2.3320     1.6720     4.7880 ca         1 6UB      -0.107000
     14 CAI          1.2540     2.4490     5.1670 ca         1 6UB      -0.128000
     15 CAH          1.0570     3.6880     4.5880 ca         1 6UB      -0.110000
     16 CAJ          1.9380     4.1520     3.6300 ca         1 6UB      -0.118000
     17 CAZ          3.0220     3.3770     3.2540 ca         1 6UB       0.047400
     18 ClAG         4.1290     3.9590     2.0520 cl         1 6UB      -0.092400
     19 CAU          6.0940     2.0540     5.1010 c          1 6UB       0.666300
     20 OAE          6.8040     1.8550     6.0690 o          1 6UB      -0.578000
     21 OAQ          6.1060     3.2580     4.4920 os         1 6UB      -0.408900
     22 CAB          6.9770     4.2520     5.0360 c3         1 6UB       0.137700
     23 CAC          6.1380    -0.3860     6.4340 c3         1 6UB      -0.049900
     24 C24          3.4160    -2.4200     2.8930 c3         1 6UB       0.178600
     25 O25          4.4970    -3.3330     2.6920 os         1 6UB      -0.452600
     26 C26          4.1080    -4.5740     2.0980 c3         1 6UB       0.110400
     27 C27          5.3390    -5.4660     1.9300 c3         1 6UB       0.100800
     28 N28          5.8720    -5.8180     3.2530 nz         1 6UB      -0.808600
     29 H1          -0.3610    -0.8890    -0.5030 hc         1 6UB       0.052700
     30 H2          -0.3610     0.0090     1.0210 hc         1 6UB       0.052700
     31 H3          -0.3610     0.8800    -0.5190 hc         1 6UB       0.052700
     32 H4           1.8900    -0.8840    -0.5110 h1         1 6UB       0.048700
     33 H5           1.8900     0.8840    -0.5110 h1         1 6UB       0.048700
     34 H6           4.2640    -1.9680     5.3820 hn         1 6UB       0.445800
     35 H9           4.9710     1.8140     2.6680 hc         1 6UB       0.108700
     36 H10          2.4860     0.7010     5.2430 ha         1 6UB       0.127000
     37 H11          0.5620     2.0860     5.9180 ha         1 6UB       0.135000
     38 H12          0.2100     4.2950     4.8830 ha         1 6UB       0.142000
     39 H13          1.7850     5.1240     3.1780 ha         1 6UB       0.150000
     40 H14          7.9990     3.8970     4.9960 h1         1 6UB       0.051367
     41 H15          6.8880     5.1650     4.4590 h1         1 6UB       0.051367
     42 H16          6.7030     4.4480     6.0660 h1         1 6UB       0.051367
     43 H17          5.9650    -1.3770     6.8360 hc         1 6UB       0.066700
     44 H18          7.1760    -0.2910     6.1410 hc         1 6UB       0.066700
     45 H19          5.9070     0.3550     7.1900 hc         1 6UB       0.066700
     46 H20          2.6810    -2.8700     3.5490 h1         1 6UB       0.060200
     47 H21          2.9570    -2.1890     1.9400 h1         1 6UB       0.060200
     48 H22          3.6630    -4.3860     1.1280 h1         1 6UB       0.070200
     49 H23          3.3870    -5.0690     2.7370 h1         1 6UB       0.070200
     50 H24          6.0960    -4.9360     1.3650 hx         1 6UB       0.123200
     51 H25          5.0600    -6.3700     1.4010 hx         1 6UB       0.123200
     52 H26          6.5090    -6.5850     3.1620 hn         1 6UB       0.459800
     53 H27          5.1190    -6.0800     3.8580 hn         1 6UB       0.459800
     54 H283         6.3520    -5.0300     3.6400 hn         1 6UB       0.459800
@<TRIPOS>BOND
     1    15    16 ar  
     2    15    14 ar  
     3    16    17 ar  
     4    14    13 ar  
     5    18    17 1   
     6    17    12 ar  
     7    13    12 ar  
     8    12    11 1   
     9    20    19 2   
    10    11    10 1   
    11    11     6 1   
    12    10    19 1   
    13    10     9 2   
    14    19    21 1   
    15     6     4 1   
    16     6     7 2   
    17     2     3 1   
    18     2     1 1   
    19     4     5 2   
    20     4     3 1   
    21     8     9 1   
    22     8     7 1   
    23     9    23 1   
    24     7    24 1   
    25    21    22 1   
    26    24    25 1   
    27    25    26 1   
    28    26    27 1   
    29    27    28 1   
    30     1    29 1   
    31     1    30 1   
    32     1    31 1   
    33     2    32 1   
    34     2    33 1   
    35     8    34 1   
    36    11    35 1   
    37    13    36 1   
    38    14    37 1   
    39    15    38 1   
    40    16    39 1   
    41    22    40 1   
    42    22    41 1   
    43    22    42 1   
    44    23    43 1   
    45    23    44 1   
    46    23    45 1   
    47    24    46 1   
    48    24    47 1   
    49    26    48 1   
    50    26    49 1   
    51    27    50 1   
    52    27    51 1   
    53    28    52 1   
    54    28    53 1   
    55    54    28 1   
@<TRIPOS>SUBSTRUCTURE
     1 6UB         1 TEMP              0 ****  ****    0 ROOT
