@<TRIPOS>MOLECULE
6UB
   54    55     1     0     0
SMALL
bcc


@<TRIPOS>ATOM
      1 CAA          0.0000     0.0000     0.0000 c3         1 6UB      -0.006100
      2 CAL          1.5290     0.0000     0.0000 c3         1 6UB       0.217400
      3 OAS          2.0070     0.0000     1.3470 os         1 6UB      -0.405900
      4 CAV          3.3440    -0.0000     1.5240 c          1 6UB       0.716300
      5 OAF          4.0850     0.0000     0.5580 o          1 6UB      -0.569000
      6 CAY          3.8840    -0.0000     2.8300 ce         1 6UB      -0.176400
      7 CAW          3.9390    -1.1530     3.5190 c2         1 6UB      -0.072200
      8 NAP          4.4620    -1.1910     4.7840 nu         1 6UB      -0.144800
      9 CAT          5.2540    -0.1700     5.2320 c2         1 6UB       0.019800
     10 CAX          5.2560     1.0250     4.6140 ce         1 6UB      -0.272400
     11 CBB          4.3910     1.2870     3.4160 c3         1 6UB       0.160000
     12 CBA          3.2150     2.1340     3.8300 ca         1 6UB      -0.106300
     13 CAK          2.3320     1.6720     4.7880 ca         1 6UB      -0.085000
     14 CAI          1.2540     2.4490     5.1670 ca         1 6UB      -0.098000
     15 CAH          1.0570     3.6880     4.5880 ca         1 6UB      -0.079000
     16 CAJ          1.9380     4.1520     3.6300 ca         1 6UB      -0.092000
     17 CAZ          3.0220     3.3770     3.2540 ca         1 6UB      -0.019600
     18 ClAG         4.1290     3.9590     2.0520 cl         1 6UB      -0.001400
     19 CAU          6.0940     2.0540     5.1010 c          1 6UB       0.734300
     20 OAE          6.8040     1.8550     6.0690 o          1 6UB      -0.613000
     21 OAQ          6.1060     3.2580     4.4920 os         1 6UB      -0.400900
     22 CAB          6.9770     4.2520     5.0360 c3         1 6UB       0.263700
     23 CAC          6.1380    -0.3860     6.4340 c3         1 6UB       0.048100
     24 C24          3.4160    -2.4200     2.8930 c3         1 6UB       0.277600
     25 O25          4.4970    -3.3330     2.6920 os         1 6UB      -0.446600
     26 C26          4.1080    -4.5740     2.0980 c3         1 6UB       0.204400
     27 C27          5.3390    -5.4660     1.9300 c3         1 6UB      -0.048200
     28 N28          5.8720    -5.8180     3.2530 nz         1 6UB       0.086400
     29 H1          -0.3610    -0.8890    -0.5030 hc         1 6UB       0.015367
     30 H2          -0.3610     0.0090     1.0210 hc         1 6UB       0.015367
     31 H3          -0.3610     0.8800    -0.5190 hc         1 6UB       0.015367
     32 H4           1.8900    -0.8840    -0.5110 h1         1 6UB       0.009700
     33 H5           1.8900     0.8840    -0.5110 h1         1 6UB       0.009700
     34 H6           4.2640    -1.9680     5.3820 hn         1 6UB       0.273800
     35 H9           4.9710     1.8140     2.6680 hc         1 6UB       0.069700
     36 H10          2.4860     0.7010     5.2430 ha         1 6UB       0.097000
     37 H11          0.5620     2.0860     5.9180 ha         1 6UB       0.106000
     38 H12          0.2100     4.2950     4.8830 ha         1 6UB       0.111000
     39 H13          1.7850     5.1240     3.1780 ha         1 6UB       0.120000
     40 H14          7.9990     3.8970     4.9960 h1         1 6UB       0.003700
     41 H15          6.8880     5.1650     4.4590 h1         1 6UB       0.003700
     42 H16          6.7030     4.4480     6.0660 h1         1 6UB       0.003700
     43 H17          5.9650    -1.3770     6.8360 hc         1 6UB       0.031367
     44 H18          7.1760    -0.2910     6.1410 hc         1 6UB       0.031367
     45 H19          5.9070     0.3550     7.1900 hc         1 6UB       0.031367
     46 H20          2.6810    -2.8700     3.5490 h1         1 6UB       0.019700
     47 H21          2.9570    -2.1890     1.9400 h1         1 6UB       0.019700
     48 H22          3.6630    -4.3860     1.1280 h1         1 6UB       0.030200
     49 H23          3.3870    -5.0690     2.7370 h1         1 6UB       0.030200
     50 H24          6.0960    -4.9360     1.3650 hx         1 6UB       0.093200
     51 H25          5.0600    -6.3700     1.4010 hx         1 6UB       0.093200
     52 H26          6.5090    -6.5850     3.1620 hn         1 6UB       0.225467
     53 H27          5.1190    -6.0800     3.8580 hn         1 6UB       0.225467
     54 H283         6.3520    -5.0300     3.6400 hn         1 6UB       0.225467
@<TRIPOS>BOND
     1     1     2 1   
     2     1    29 1   
     3     1    30 1   
     4     1    31 1   
     5     2     3 1   
     6     2    32 1   
     7     2    33 1   
     8     3     4 1   
     9     4     5 2   
    10     4     6 1   
    11     6     7 2   
    12     6    11 1   
    13     7     8 1   
    14     7    24 1   
    15     8     9 1   
    16     8    34 1   
    17     9    10 2   
    18     9    23 1   
    19    10    11 1   
    20    10    19 1   
    21    11    12 1   
    22    11    35 1   
    23    12    13 ar  
    24    12    17 ar  
    25    13    14 ar  
    26    13    36 1   
    27    14    15 ar  
    28    14    37 1   
    29    15    16 ar  
    30    15    38 1   
    31    16    17 ar  
    32    16    39 1   
    33    17    18 1   
    34    19    20 2   
    35    19    21 1   
    36    21    22 1   
    37    22    40 1   
    38    22    41 1   
    39    22    42 1   
    40    23    43 1   
    41    23    44 1   
    42    23    45 1   
    43    24    25 1   
    44    24    46 1   
    45    24    47 1   
    46    25    26 1   
    47    26    27 1   
    48    26    48 1   
    49    26    49 1   
    50    27    28 1   
    51    27    50 1   
    52    27    51 1   
    53    28    52 1   
    54    28    53 1   
    55    28    54 1   
@<TRIPOS>SUBSTRUCTURE
     1 6UB         1 TEMP              0 ****  ****    0 ROOT
