@<TRIPOS>MOLECULE
6UC
   59    60     1     0     0
SMALL
bcc


@<TRIPOS>ATOM
      1 CAA          0.0000     0.0000     0.0000 c3         1 6UC      -0.003100
      2 CAL          1.5300     0.0000     0.0000 c3         1 6UC       0.216400
      3 OAS          2.0060     0.0000     1.3480 os         1 6UC      -0.399900
      4 CAV          3.3450     0.0000     1.5240 c          1 6UC       0.735300
      5 OAF          4.0860     0.0000     0.5590 o          1 6UC      -0.582000
      6 CAY          3.8850    -0.0000     2.8320 ce         1 6UC      -0.236400
      7 CAW          3.9330     1.1500     3.5240 c2         1 6UC      -0.023200
      8 NAP          4.4570     1.1870     4.7870 nu         1 6UC      -0.125800
      9 CAT          5.2570     0.1700     5.2320 c2         1 6UC       0.039800
     10 CAX          5.2640    -1.0230     4.6110 ce         1 6UC      -0.309400
     11 CBB          4.3880    -1.2890     3.4170 c3         1 6UC       0.172000
     12 CBA          3.2170    -2.1390     3.8410 ca         1 6UC      -0.073300
     13 CAK          2.3420    -1.6770     4.8060 ca         1 6UC      -0.081000
     14 CAI          1.2670    -2.4560     5.1940 ca         1 6UC      -0.095000
     15 CAH          1.0700    -3.6970     4.6170 ca         1 6UC      -0.099000
     16 CAJ          1.9440    -4.1600     3.6530 ca         1 6UC      -0.087000
     17 CAZ          3.0160    -3.3780     3.2600 ca         1 6UC       0.050100
     18 BrAG         4.2140    -4.0090     1.9410 br         1 6UC      -0.120100
     19 CAU          6.1090    -2.0480     5.0940 c          1 6UC       0.738300
     20 OAE          6.8180    -1.8470     6.0610 o          1 6UC      -0.625000
     21 OAQ          6.1270    -3.2510     4.4820 os         1 6UC      -0.399900
     22 CAB          7.0040    -4.2410     5.0230 c3         1 6UC       0.261700
     23 CAC          6.1400     0.3900     6.4330 c3         1 6UC       0.039100
     24 C24          3.4030     2.4160     2.9010 c3         1 6UC       0.249600
     25 O25          2.2590     2.8630     3.6310 os         1 6UC      -0.400600
     26 C26          1.6760     4.0640     3.1190 c3         1 6UC       0.211400
     27 C27          0.4660     4.4480     3.9740 c3         1 6UC       0.146800
     28 N28          0.9130     4.7810     5.3340 n3         1 6UC      -0.539600
     29 C21          1.7400     5.9950     5.3330 c3         1 6UC       0.181600
     30 C22         -0.2310     4.9240     6.2430 c3         1 6UC       0.181600
     31 H1          -0.3610    -0.7570     0.6860 hc         1 6UC       0.010033
     32 H2          -0.3610     0.9720     0.3130 hc         1 6UC       0.010033
     33 H3          -0.3610    -0.2150    -0.9980 hc         1 6UC       0.010033
     34 H4           1.8910    -0.8850    -0.5110 h1         1 6UC       0.007200
     35 H5           1.8910     0.8850    -0.5110 h1         1 6UC       0.007200
     36 H6           4.2540     1.9610     5.3880 hn         1 6UC       0.294800
     37 H9           4.9640    -1.8180     2.6670 hc         1 6UC       0.061700
     38 H10          2.4970    -0.7040     5.2570 ha         1 6UC       0.111000
     39 H11          0.5810    -2.0950     5.9500 ha         1 6UC       0.103000
     40 H12          0.2290    -4.3080     4.9230 ha         1 6UC       0.104000
     41 H13          1.7880    -5.1310     3.2000 ha         1 6UC       0.114000
     42 H14          8.0240    -3.8780     4.9880 h1         1 6UC      -0.001300
     43 H15          6.9250    -5.1510     4.4390 h1         1 6UC      -0.001300
     44 H16          6.7280    -4.4460     6.0500 h1         1 6UC      -0.001300
     45 H17          5.8060    -0.2430     7.2470 hc         1 6UC       0.032033
     46 H18          7.1630     0.1410     6.1790 hc         1 6UC       0.032033
     47 H19          6.0850     1.4280     6.7370 hc         1 6UC       0.032033
     48 H20          3.1220     2.2230     1.8730 h1         1 6UC       0.008700
     49 H21          4.1700     3.1810     2.9270 h1         1 6UC       0.008700
     50 H22          2.4080     4.8620     3.1500 h1         1 6UC      -0.005300
     51 H23          1.3590     3.9040     2.0960 h1         1 6UC      -0.005300
     52 H24         -0.0270     5.3080     3.5360 h1         1 6UC       0.018700
     53 H25         -0.2260     3.6160     4.0150 h1         1 6UC       0.018700
     54 H27          1.7310     6.4390     6.3210 h1         1 6UC       0.001533
     55 H28          1.3420     6.7030     4.6160 h1         1 6UC       0.001533
     56 H29          2.7570     5.7400     5.0610 h1         1 6UC       0.001533
     57 H30         -0.7910     5.8140     5.9820 h1         1 6UC       0.001533
     58 H31          0.1250     5.0080     7.2620 h1         1 6UC       0.001533
     59 H32         -0.8730     4.0550     6.1550 h1         1 6UC       0.001533
@<TRIPOS>BOND
     1     1     2 1   
     2     1    31 1   
     3     1    32 1   
     4     1    33 1   
     5     2     3 1   
     6     2    34 1   
     7     2    35 1   
     8     3     4 1   
     9     4     5 2   
    10     4     6 1   
    11     6     7 2   
    12     6    11 1   
    13     7     8 1   
    14     7    24 1   
    15     8     9 1   
    16     8    36 1   
    17     9    10 2   
    18     9    23 1   
    19    10    11 1   
    20    10    19 1   
    21    11    12 1   
    22    11    37 1   
    23    12    13 ar  
    24    12    17 ar  
    25    13    14 ar  
    26    13    38 1   
    27    14    15 ar  
    28    14    39 1   
    29    15    16 ar  
    30    15    40 1   
    31    16    17 ar  
    32    16    41 1   
    33    17    18 1   
    34    19    20 2   
    35    19    21 1   
    36    21    22 1   
    37    22    42 1   
    38    22    43 1   
    39    22    44 1   
    40    23    45 1   
    41    23    46 1   
    42    23    47 1   
    43    24    25 1   
    44    24    48 1   
    45    24    49 1   
    46    25    26 1   
    47    26    27 1   
    48    26    50 1   
    49    26    51 1   
    50    27    28 1   
    51    27    52 1   
    52    27    53 1   
    53    28    29 1   
    54    28    30 1   
    55    29    54 1   
    56    29    55 1   
    57    29    56 1   
    58    30    57 1   
    59    30    58 1   
    60    30    59 1   
@<TRIPOS>SUBSTRUCTURE
     1 6UC         1 TEMP              0 ****  ****    0 ROOT
