@<TRIPOS>MOLECULE
molecule
   42    42     1     0     0
SMALL
bcc


@<TRIPOS>ATOM
      1 C1           0.0000     0.0000     0.0000 c          1 6UD       0.892800
      2 C2           1.4740     0.0000     0.0000 ce         1 6UD       0.060900
      3 C3           2.1060     0.0000     1.1640 c2         1 6UD      -0.337200
      4 C4           3.6070    -0.0090     1.2630 c3         1 6UD       0.171300
      5 C5           4.2110     0.4170    -0.0790 c3         1 6UD       0.045700
      6 C6           3.5030    -0.3660    -1.1940 c3         1 6UD       0.101100
      7 C7           4.1260    -0.0150    -2.5470 c3         1 6UD       0.000100
      8 C8           3.3390    -0.7010    -3.6640 c3         1 6UD       0.094100
      9 C9           3.9620    -0.3490    -5.0170 c3         1 6UD       0.073800
     10 C11          7.9980     0.6790     0.4100 c3         1 6UD      -0.173100
     11 N5           5.6440     0.1140    -0.0960 ns         1 6UD      -0.587900
     12 O1A         -0.6740    -0.0060    -1.1670 o          1 6UD      -0.811300
     13 O1B         -0.6070     0.0020     1.0530 o          1 6UD      -0.811300
     14 O4           4.0230     0.9020     2.2830 oh         1 6UD      -0.581800
     15 O6           2.1210    -0.0070    -1.1910 os         1 6UD      -0.291900
     16 O7           4.0880     1.4010    -2.7350 oh         1 6UD      -0.501800
     17 O8           3.3780    -2.1170    -3.4750 oh         1 6UD      -0.606800
     18 O10          6.1290     2.0280     0.9180 o          1 6UD      -0.564100
     19 N1           3.1380    -0.9090    -6.0960 n7         1 6UD      -0.595000
     20 N2           3.7010    -0.5930    -7.3990 n7         1 6UD      -0.341800
     21 N3           3.9150    -1.8010    -8.1790 nz         1 6UD      -0.611400
     22 H1           1.5220     0.0060     2.0760 ha         1 6UD       0.175000
     23 H2           3.9450    -1.0100     1.5070 h1         1 6UD       0.009700
     24 H3           3.8880     1.4490    -0.0100 h1         1 6UD       0.142700
     25 H4           3.7610    -1.3420    -0.8010 h1         1 6UD       0.056700
     26 H5           4.5210    -0.8840    -2.0340 h1         1 6UD       0.175700
     27 H6           2.4000    -0.2130    -3.4310 h1         1 6UD       0.130700
     28 H7           4.8860    -0.8750    -4.8110 h1         1 6UD       0.079700
     29 H8           4.1160     0.7180    -5.1230 h1         1 6UD       0.079700
     30 H9           8.3450     0.6300    -0.6150 hc         1 6UD       0.054033
     31 H10          8.1730    -0.2730     0.8970 hc         1 6UD       0.054033
     32 H11          8.5370     1.4580     0.9370 hc         1 6UD       0.054033
     33 H12          5.9650    -0.7660    -0.4490 hn         1 6UD       0.297500
     34 H14          3.9400     0.4880     3.1270 ho         1 6UD       0.398000
     35 H15          4.9210     1.6980    -3.0610 ho         1 6UD       0.387000
     36 H16          2.5120    -2.4730    -3.5890 ho         1 6UD       0.429000
     37 H17          2.2100    -0.5370    -6.0350 hn         1 6UD       0.441800
     38 H18          4.5720    -0.1150    -7.2790 hn         1 6UD       0.402800
     39 H19          3.0530    -2.3020    -8.2620 hn         1 6UD       0.454467
     40 H20          4.5940    -2.3780    -7.7230 hn         1 6UD       0.454467
     41 C10          6.5230     0.9900     0.4280 c          1 6UD       0.648100
     42 H33          4.2460    -1.5540    -9.0910 hn         1 6UD       0.454467
@<TRIPOS>BOND
     1    13     1 1
     2    14     4 1
     3     3     4 1
     4     3     2 2
     5     1     2 1
     6     1    12 1
     7     4     5 1
     8     2    15 1
     9     5    11 1
    10     5     6 1
    11    15     6 1
    12    11    41 1
    13     6     7 1
    14    41    18 2
    15    41    10 1
    16    16     7 1
    17     7     8 1
    18     8    17 1
    19     8     9 1
    20    21    20 1
    21     9    19 1
    22    20    19 1
    23     3    22 1
    24     4    23 1
    25     5    24 1
    26     6    25 1
    27     7    26 1
    28     8    27 1
    29     9    28 1
    30     9    29 1
    31    10    30 1
    32    10    31 1
    33    10    32 1
    34    11    33 1
    35    14    34 1
    36    16    35 1
    37    17    36 1
    38    19    37 1
    39    20    38 1
    40    21    39 1
    41    21    40 1
    42    42    21 1
@<TRIPOS>SUBSTRUCTURE
     1 6UD         1 TEMP              0 ****  ****    0 ROOT
