@<TRIPOS>MOLECULE
molecule
   50    54     1     0     0
SMALL
bcc


@<TRIPOS>ATOM
      1 C2           0.0000     0.0000     0.0000 ca         1 6UE       0.461200
      2 C3           1.3910     0.0000     0.0000 ca         1 6UE      -0.174000
      3 C5           3.5340     0.0010     1.2990 cp         1 6UE      -0.153500
      4 C7           5.6500    -0.8020     0.4970 ca         1 6UE      -0.135500
      5 C9           5.5750     0.8150     2.2690 ca         1 6UE      -0.135500
      6 C10          4.1960     0.8180     2.2150 ca         1 6UE      -0.103000
      7 C11          1.6240    -0.6520    -2.2760 c          1 6UE       0.780100
      8 C12          1.8350    -1.4460    -4.5690 c3         1 6UE       0.233300
      9 C13          1.0350    -0.5020    -5.4340 ca         1 6UE      -0.112300
     10 C15         -0.6320     1.0430    -6.1830 ca         1 6UE      -0.127000
     11 C18          1.6500    -0.4530    -6.6820 cp         1 6UE      -0.037000
     12 C20          2.9700    -1.9400    -5.4320 ca         1 6UE      -0.112300
     13 C21          4.0090    -2.8120    -5.1840 ca         1 6UE      -0.094000
     14 C22          4.9280    -3.0930    -6.1780 ca         1 6UE      -0.127000
     15 O            0.5220    -1.1640    -2.2310 o          1 6UE      -0.654100
     16 N2           2.1090     0.0000    -1.2000 ns         1 6UE      -0.485100
     17 N           -0.6430     0.0050     1.1580 nb         1 6UE      -0.724000
     18 C4           2.0530     0.0000     1.2370 cp         1 6UE       0.488800
     19 C8           6.3010     0.0110     1.4080 ca         1 6UE      -0.116000
     20 C6           4.2720    -0.8110     0.4390 ca         1 6UE      -0.103000
     21 N1           1.3280     0.0000     2.3530 nb         1 6UE      -0.719000
     22 C1           0.0130     0.0110     2.3010 ca         1 6UE       0.667300
     23 C           -0.7680     0.0170     3.5900 c3         1 6UE      -0.120400
     24 N3           2.3610    -0.7360    -3.4010 ns         1 6UE      -0.581900
     25 C23          4.8090    -2.5000    -7.4220 ca         1 6UE      -0.121000
     26 C24          3.7730    -1.6270    -7.6790 ca         1 6UE      -0.108000
     27 C19          2.8400    -1.3390    -6.6810 cp         1 6UE      -0.037000
     28 C17          1.1070     0.3560    -7.6810 ca         1 6UE      -0.108000
     29 C16         -0.0280     1.0990    -7.4260 ca         1 6UE      -0.121000
     30 C14         -0.0990     0.2430    -5.1880 ca         1 6UE      -0.094000
     31 H1          -0.5500    -0.0040    -0.9340 h4         1 6UE       0.067100
     32 H2           6.2240    -1.4310    -0.1730 ha         1 6UE       0.133500
     33 H3           6.0890     1.4490     2.9800 ha         1 6UE       0.133500
     34 H4           3.6280     1.4470     2.8900 ha         1 6UE       0.144500
     35 H5           1.2150    -2.2780    -4.2590 h1         1 6UE       0.106700
     36 H6          -1.5230     1.6280    -5.9880 ha         1 6UE       0.135000
     37 H7           4.1040    -3.2780    -4.2110 ha         1 6UE       0.142000
     38 H8           5.7440    -3.7790    -5.9820 ha         1 6UE       0.135000
     39 H9           2.9530     0.5320    -1.2780 hn         1 6UE       0.329500
     40 H10          7.3830     0.0130     1.4520 ha         1 6UE       0.131000
     41 H11          3.7630    -1.4480    -0.2750 ha         1 6UE       0.144500
     42 H12         -1.8260    -0.0590     3.3710 hc         1 6UE       0.059033
     43 H13         -0.5750     0.9390     4.1250 hc         1 6UE       0.059033
     44 H14         -0.4640    -0.8250     4.2010 hc         1 6UE       0.059033
     45 H15          3.2520    -0.2830    -3.4510 hn         1 6UE       0.318500
     46 H16          5.5310    -2.7230    -8.1980 ha         1 6UE       0.133500
     47 H17          3.6830    -1.1650    -8.6540 ha         1 6UE       0.132500
     48 H18          1.5780     0.4030    -8.6560 ha         1 6UE       0.132500
     49 H19         -0.4480     1.7260    -8.2030 ha         1 6UE       0.133500
     50 H20         -0.5740     0.2010    -4.2150 ha         1 6UE       0.142000
@<TRIPOS>BOND
     1    10    29 ar  
     2    10    30 ar  
     3    29    28 ar  
     4    30     9 ar  
     5    23    22 1   
     6    15     7 2   
     7    17    22 ar  
     8    17     1 ar  
     9    28    11 ar  
    10    22    21 ar  
    11     9    11 ar  
    12     9     8 1   
    13     1     2 ar  
    14    21    18 ar  
    15    11    27 1   
    16     7    16 1   
    17     7    24 1   
    18     2    18 ar  
    19     2    16 1   
    20    18     3 1   
    21    20     4 ar  
    22    20     3 ar  
    23     8    24 1   
    24     8    12 1   
    25     4    19 ar  
    26     3     6 ar  
    27    27    12 ar  
    28    27    26 ar  
    29    12    13 ar  
    30    19     5 ar  
    31     6     5 ar  
    32    26    25 ar  
    33    13    14 ar  
    34    25    14 ar  
    35     1    31 1   
    36     4    32 1   
    37     5    33 1   
    38     6    34 1   
    39     8    35 1   
    40    10    36 1   
    41    13    37 1   
    42    14    38 1   
    43    16    39 1   
    44    19    40 1   
    45    20    41 1   
    46    23    42 1   
    47    23    43 1   
    48    23    44 1   
    49    24    45 1   
    50    25    46 1   
    51    26    47 1   
    52    28    48 1   
    53    29    49 1   
    54    30    50 1   
@<TRIPOS>SUBSTRUCTURE
     1 6UE         1 TEMP              0 ****  ****    0 ROOT
