@<TRIPOS>MOLECULE
6UF
   42    45     1     0     0
SMALL
bcc


@<TRIPOS>ATOM
      1 C2           0.0000     0.0000     0.0000 ca         1 6UF      -0.105000
      2 C3           1.3910     0.0000     0.0000 ca         1 6UF      -0.192200
      3 C5           1.3640    -0.0010    -2.4290 ca         1 6UF      -0.037000
      4 C7           3.5980     0.0010     0.4560 cc         1 6UF      -0.173300
      5 C9           1.9370    -1.4180     2.9320 c          1 6UF       0.548100
      6 C10          1.9660    -3.0230     4.7650 c3         1 6UF       0.009700
      7 C11          1.8470    -3.0110     6.2680 ca         1 6UF       0.337600
      8 C12          2.8610    -2.7670     8.3220 ca         1 6UF       0.402200
      9 C13          1.6690    -2.9950     8.9820 ca         1 6UF      -0.212300
     10 C15          0.6190    -3.2430     6.8580 ca         1 6UF      -0.201300
     11 C18          7.1900     0.9110     0.8680 cd         1 6UF      -0.116000
     12 O            2.0970    -2.3410     2.1610 o          1 6UF      -0.622100
     13 N1           1.8590    -1.6530     4.2570 ns         1 6UF      -0.182900
     14 C14          0.5220    -3.2360     8.2410 ca         1 6UF      -0.069000
     15 N2           2.9180    -2.7870     7.0050 nb         1 6UF      -0.559000
     16 N            2.3350     0.0000     1.0040 na         1 6UF       0.481600
     17 C1          -0.6850    -0.0060    -1.1970 ca         1 6UF      -0.078000
     18 C6           3.5040     0.0100    -0.9010 cd         1 6UF      -0.146200
     19 C4           2.0800    -0.0010    -1.2280 ca         1 6UF      -0.112800
     20 C           -0.0020    -0.0120    -2.4040 ca         1 6UF      -0.135000
     21 C16          4.9340     0.5080     0.7110 cc         1 6UF       0.147100
     22 C19          6.0800     0.7980     0.0580 cd         1 6UF      -0.113000
     23 C17          6.9630     0.7180     2.1710 cc         1 6UF       0.002900
     24 S            5.2580     0.3750     2.4340 ss         1 6UF      -0.349800
     25 H1          -0.5430     0.0050     0.9370 ha         1 6UF       0.097000
     26 H2           1.8900    -0.0060    -3.3760 ha         1 6UF       0.100000
     27 H3           2.9250    -3.4400     4.4820 h1         1 6UF       0.037700
     28 H4           1.1710    -3.6270     4.3450 h1         1 6UF       0.037700
     29 H5           3.7620    -2.5790     8.8940 h4         1 6UF      -0.016900
     30 H6           1.6290    -2.9800    10.0650 ha         1 6UF       0.115000
     31 H7          -0.2570    -3.4280     6.2480 ha         1 6UF       0.118000
     32 H8           8.1740     1.1390     0.4770 ha         1 6UF       0.120000
     33 H9           1.6970    -0.8960     4.8910 hn         1 6UF       0.174500
     34 H10         -0.4270    -3.4170     8.7310 ha         1 6UF       0.111000
     35 H11          2.8330     0.5130     2.9710 h1         1 6UF       0.057200
     36 H12          1.1000     0.5130     2.6140 h1         1 6UF       0.057200
     37 H13         -1.7680    -0.0150    -1.1940 ha         1 6UF       0.099000
     38 H14          4.3280     0.0120    -1.6040 ha         1 6UF       0.137000
     39 H15         -0.5570    -0.0170    -3.3350 ha         1 6UF       0.102000
     40 H16          6.1240     0.9310    -1.0160 ha         1 6UF       0.126000
     41 H17          7.7150     0.7690     2.9490 h4         1 6UF       0.146000
     42 C8           2.0390     0.0020     2.4390 c3         1 6UF      -0.140700
@<TRIPOS>BOND
     1     1     2 ar  
     2     1    17 ar  
     3     1    25 1   
     4     2    16 1   
     5     2    19 ar  
     6     3    19 ar  
     7     3    20 ar  
     8     3    26 1   
     9     4    16 1   
    10     4    18 2   
    11     4    21 1   
    12     5    12 2   
    13     5    13 1   
    14     5    42 1   
    15     6     7 1   
    16     6    13 1   
    17     6    27 1   
    18     6    28 1   
    19     7    10 ar  
    20     7    15 ar  
    21     8     9 ar  
    22     8    15 ar  
    23     8    29 1   
    24     9    14 ar  
    25     9    30 1   
    26    10    14 ar  
    27    10    31 1   
    28    11    22 1   
    29    11    23 2   
    30    11    32 1   
    31    13    33 1   
    32    14    34 1   
    33    16    42 1   
    34    17    20 ar  
    35    17    37 1   
    36    18    19 1   
    37    18    38 1   
    38    20    39 1   
    39    21    22 2   
    40    21    24 1   
    41    22    40 1   
    42    23    24 1   
    43    23    41 1   
    44    35    42 1   
    45    36    42 1   
@<TRIPOS>SUBSTRUCTURE
     1 6UF         1 TEMP              0 ****  ****    0 ROOT
