@<TRIPOS>MOLECULE
molecule
   42    45     1     0     0
SMALL
bcc


@<TRIPOS>ATOM
      1 C2           0.0000     0.0000     0.0000 ca         1 6UF      -0.144000
      2 C3           1.3910     0.0000     0.0000 ca         1 6UF      -0.005200
      3 C5           1.3640    -0.0010    -2.4290 ca         1 6UF      -0.073000
      4 C7           3.5980     0.0010     0.4560 cc         1 6UF       0.001700
      5 C9           1.9370    -1.4180     2.9320 c          1 6UF       0.629100
      6 C10          1.9660    -3.0230     4.7650 c3         1 6UF       0.071700
      7 C11          1.8470    -3.0110     6.2680 ca         1 6UF       0.392600
      8 C12          2.8610    -2.7670     8.3220 ca         1 6UF       0.419200
      9 C13          1.6690    -2.9950     8.9820 ca         1 6UF      -0.247300
     10 C15          0.6190    -3.2430     6.8580 ca         1 6UF      -0.237300
     11 C18          7.1900     0.9110     0.8680 cd         1 6UF      -0.151000
     12 O            2.0970    -2.3410     2.1610 o          1 6UF      -0.573100
     13 N1           1.8590    -1.6530     4.2570 ns         1 6UF      -0.583900
     14 C14          0.5220    -3.2360     8.2410 ca         1 6UF      -0.095000
     15 N2           2.9180    -2.7870     7.0050 nb         1 6UF      -0.678000
     16 N            2.3350     0.0000     1.0040 na         1 6UF      -0.030400
     17 C1          -0.6850    -0.0060    -1.1970 ca         1 6UF      -0.102000
     18 C6           3.5040     0.0100    -0.9010 cd         1 6UF      -0.161200
     19 C4           2.0800    -0.0010    -1.2280 ca         1 6UF      -0.112800
     20 C           -0.0020    -0.0120    -2.4040 ca         1 6UF      -0.159000
     21 C16          4.9340     0.5080     0.7110 cc         1 6UF       0.076100
     22 C19          6.0800     0.7980     0.0580 cd         1 6UF      -0.134000
     23 C17          6.9630     0.7180     2.1710 cc         1 6UF      -0.062100
     24 S            5.2580     0.3750     2.4340 ss         1 6UF      -0.229800
     25 H1          -0.5430     0.0050     0.9370 ha         1 6UF       0.122000
     26 H2           1.8900    -0.0060    -3.3760 ha         1 6UF       0.130000
     27 H3           2.9250    -3.4400     4.4820 h1         1 6UF       0.070200
     28 H4           1.1710    -3.6270     4.3450 h1         1 6UF       0.070200
     29 H5           3.7620    -2.5790     8.8940 h4         1 6UF       0.027100
     30 H6           1.6290    -2.9800    10.0650 ha         1 6UF       0.141000
     31 H7          -0.2570    -3.4280     6.2480 ha         1 6UF       0.144000
     32 H8           8.1740     1.1390     0.4770 ha         1 6UF       0.150000
     33 H9           1.6970    -0.8960     4.8910 hn         1 6UF       0.315500
     34 H10         -0.4270    -3.4170     8.7310 ha         1 6UF       0.141000
     35 H11          2.8330     0.5130     2.9710 h1         1 6UF       0.080700
     36 H12          1.1000     0.5130     2.6140 h1         1 6UF       0.080700
     37 H13         -1.7680    -0.0150    -1.1940 ha         1 6UF       0.129000
     38 H14          4.3280     0.0120    -1.6040 ha         1 6UF       0.160000
     39 H15         -0.5570    -0.0170    -3.3350 ha         1 6UF       0.128000
     40 H16          6.1240     0.9310    -1.0160 ha         1 6UF       0.152000
     41 H17          7.7150     0.7690     2.9490 h4         1 6UF       0.168000
     42 C8           2.0390     0.0020     2.4390 c3         1 6UF      -0.025700
@<TRIPOS>BOND
     1    20    17 ar
     2    20     3 ar
     3    17     1 ar
     4     3    19 ar
     5     1     2 ar
     6    19     2 ar
     7    19    18 1
     8     2    16 1
     9    14     9 ar
    10    14    10 ar
    11     9     8 ar
    12    12     5 2
    13    10     7 ar
    14     8    15 ar
    15    18     4 2
    16    16    42 1
    17    16     4 1
    18     5    42 1
    19     5    13 1
    20     7    15 ar
    21     7     6 1
    22     4    21 1
    23     6    13 1
    24    21    22 2
    25    21    24 1
    26    22    11 1
    27    24    23 1
    28    11    23 2
    29     1    25 1
    30     3    26 1
    31     6    27 1
    32     6    28 1
    33     8    29 1
    34     9    30 1
    35    10    31 1
    36    11    32 1
    37    13    33 1
    38    14    34 1
    39    42    35 1
    40    42    36 1
    41    17    37 1
    42    18    38 1
    43    20    39 1
    44    22    40 1
    45    23    41 1
@<TRIPOS>SUBSTRUCTURE
     1 6UF         1 TEMP              0 ****  ****    0 ROOT
