@<TRIPOS>MOLECULE
6UG
   41    43     1     0     0
SMALL
bcc


@<TRIPOS>ATOM
      1 C2           0.0000     0.0000     0.0000 ca         1 6UG      -0.190300
      2 C3           1.3860     0.0000     0.0000 ca         1 6UG      -0.096000
      3 C5           4.1580    -0.3760     0.1930 c          1 6UG       0.578700
      4 C7           6.2870     0.2410     1.3310 ca         1 6UG      -0.068000
      5 C9           8.3930    -0.0440     0.2270 ca         1 6UG      -0.160300
      6 C10          7.7530    -0.5440    -0.8920 ca         1 6UG      -0.089000
      7 C11          6.3750    -0.6470    -0.9140 ca         1 6UG       0.180900
      8 C12          9.8950     0.0770     0.2400 c3         1 6UG       0.638200
      9 C13          1.2940    -0.0010     2.4020 cp         1 6UG       0.401800
     10 C15          1.5280     0.8280     4.7410 ca         1 6UG      -0.067500
     11 C18          3.7160    -0.8270     5.1550 ca         1 6UG      -0.133500
     12 C17          3.2630    -0.0010     6.1710 ca         1 6UG       0.109900
     13 C16          2.1700     0.8240     5.9620 ca         1 6UG      -0.133500
     14 C19          3.0810    -0.8310     3.9300 ca         1 6UG      -0.067500
     15 C14          1.9810    -0.0000     3.7160 cp         1 6UG      -0.159500
     16 N1          -0.0310    -0.0010     2.3520 nb         1 6UG      -0.545000
     17 C1          -0.6800    -0.0010     1.2040 ca         1 6UG       0.355600
     18 C           -2.1870    -0.0010     1.2050 c3         1 6UG      -0.038400
     19 C4           2.0490     0.0000     1.2230 ca         1 6UG      -0.198700
     20 N            3.4450    -0.0010     1.2730 ns         1 6UG      -0.026100
     21 O            3.5900    -0.8110    -0.7890 o          1 6UG      -0.611100
     22 C6           5.6310    -0.2580     0.2040 ca         1 6UG      -0.165600
     23 F3          10.3570     0.3010    -1.0620 f          1 6UG      -0.203300
     24 F2          10.2700     1.1480     1.0580 f          1 6UG      -0.203300
     25 F1          10.4540    -1.1060     0.7350 f          1 6UG      -0.203300
     26 C8           7.6610     0.3470     1.3350 ca         1 6UG      -0.063000
     27 H1          -0.5460     0.0000    -0.9350 ha         1 6UG       0.119000
     28 H2           1.9400     0.0010    -0.9310 ha         1 6UG       0.172000
     29 H3           5.7160     0.5470     2.2000 ha         1 6UG       0.114000
     30 H4           8.3320    -0.8440    -1.7570 ha         1 6UG       0.140000
     31 H5           0.6740     1.4740     4.5790 ha         1 6UG       0.119000
     32 H6           4.5700    -1.4710     5.3230 ha         1 6UG       0.121500
     33 H7           1.8190     1.4680     6.7590 ha         1 6UG       0.121500
     34 H8           3.4360    -1.4770     3.1360 ha         1 6UG       0.119000
     35 H9          -2.5480    -0.7870     0.5530 hc         1 6UG       0.013700
     36 H10         -2.5480    -0.1710     2.2120 hc         1 6UG       0.013700
     37 H11         -2.5480     0.9570     0.8490 hc         1 6UG       0.013700
     38 H12          3.9160     0.3230     2.0950 hn         1 6UG       0.188500
     39 H13          8.1700     0.7360     2.2090 ha         1 6UG       0.126000
     40 F4           3.8890    -0.0020     7.3680 f          1 6UG      -0.126900
     41 F            5.7500    -1.1350    -2.0080 f          1 6UG      -0.100900
@<TRIPOS>BOND
     1     1     2 ar  
     2     1    17 ar  
     3     1    27 1   
     4     2    19 ar  
     5     2    28 1   
     6     3    20 1   
     7     3    21 2   
     8     3    22 1   
     9     4    22 ar  
    10     4    26 ar  
    11     4    29 1   
    12     5     6 ar  
    13     5     8 1   
    14     5    26 ar  
    15     6     7 ar  
    16     6    30 1   
    17     7    22 ar  
    18     7    41 1   
    19     8    23 1   
    20     8    24 1   
    21     8    25 1   
    22     9    15 1   
    23     9    16 ar  
    24     9    19 ar  
    25    10    13 ar  
    26    10    15 ar  
    27    10    31 1   
    28    11    12 ar  
    29    11    14 ar  
    30    11    32 1   
    31    12    13 ar  
    32    12    40 1   
    33    13    33 1   
    34    14    15 ar  
    35    14    34 1   
    36    16    17 ar  
    37    17    18 1   
    38    18    35 1   
    39    18    36 1   
    40    18    37 1   
    41    19    20 1   
    42    20    38 1   
    43    26    39 1   
@<TRIPOS>SUBSTRUCTURE
     1 6UG         1 TEMP              0 ****  ****    0 ROOT
