@<TRIPOS>MOLECULE
molecule
   41    43     1     0     0
SMALL
bcc


@<TRIPOS>ATOM
      1 C2           0.0000     0.0000     0.0000 ca         1 6UG      -0.228300
      2 C3           1.3860     0.0000     0.0000 ca         1 6UG      -0.107000
      3 C5           4.1580    -0.3760     0.1930 c          1 6UG       0.670700
      4 C7           6.2870     0.2410     1.3310 ca         1 6UG      -0.085000
      5 C9           8.3930    -0.0440     0.2270 ca         1 6UG      -0.130300
      6 C10          7.7530    -0.5440    -0.8920 ca         1 6UG      -0.134000
      7 C11          6.3750    -0.6470    -0.9140 ca         1 6UG       0.195900
      8 C12          9.8950     0.0770     0.2400 c3         1 6UG       0.674200
      9 C13          1.2940    -0.0010     2.4020 cp         1 6UG       0.445800
     10 C15          1.5280     0.8280     4.7410 ca         1 6UG      -0.088500
     11 C18          3.7160    -0.8270     5.1550 ca         1 6UG      -0.172000
     12 C17          3.2630    -0.0010     6.1710 ca         1 6UG       0.139900
     13 C16          2.1700     0.8240     5.9620 ca         1 6UG      -0.172000
     14 C19          3.0810    -0.8310     3.9300 ca         1 6UG      -0.088500
     15 C14          1.9810    -0.0000     3.7160 cp         1 6UG      -0.158500
     16 N1          -0.0310    -0.0010     2.3520 nb         1 6UG      -0.667000
     17 C1          -0.6800    -0.0010     1.2040 ca         1 6UG       0.408600
     18 C           -2.1870    -0.0010     1.2050 c3         1 6UG      -0.139400
     19 C4           2.0490     0.0000     1.2230 ca         1 6UG      -0.058700
     20 N            3.4450    -0.0010     1.2730 ns         1 6UG      -0.463100
     21 O            3.5900    -0.8110    -0.7890 o          1 6UG      -0.573100
     22 C6           5.6310    -0.2580     0.2040 ca         1 6UG      -0.168600
     23 F3          10.3570     0.3010    -1.0620 f          1 6UG      -0.217633
     24 F2          10.2700     1.1480     1.0580 f          1 6UG      -0.217633
     25 F1          10.4540    -1.1060     0.7350 f          1 6UG      -0.217633
     26 C8           7.6610     0.3470     1.3350 ca         1 6UG      -0.107000
     27 H1          -0.5460     0.0000    -0.9350 ha         1 6UG       0.145000
     28 H2           1.9400     0.0010    -0.9310 ha         1 6UG       0.190000
     29 H3           5.7160     0.5470     2.2000 ha         1 6UG       0.143000
     30 H4           8.3320    -0.8440    -1.7570 ha         1 6UG       0.170000
     31 H5           0.6740     1.4740     4.5790 ha         1 6UG       0.151000
     32 H6           4.5700    -1.4710     5.3230 ha         1 6UG       0.148500
     33 H7           1.8190     1.4680     6.7590 ha         1 6UG       0.148500
     34 H8           3.4360    -1.4770     3.1360 ha         1 6UG       0.151000
     35 H9          -2.5480    -0.7870     0.5530 hc         1 6UG       0.052700
     36 H10         -2.5480    -0.1710     2.2120 hc         1 6UG       0.052700
     37 H11         -2.5480     0.9570     0.8490 hc         1 6UG       0.052700
     38 H12          3.9160     0.3230     2.0950 hn         1 6UG       0.335500
     39 H13          8.1700     0.7360     2.2090 ha         1 6UG       0.158000
     40 F4           3.8890    -0.0020     7.3680 f          1 6UG      -0.137900
     41 F            5.7500    -1.1350    -2.0080 f          1 6UG      -0.098900
@<TRIPOS>BOND
     1    41     7 1   
     2    21     3 2   
     3     7     6 ar  
     4     7    22 ar  
     5     1    17 ar  
     6     1     2 ar  
     7     3    22 1   
     8     3    20 1   
     9    18    17 1   
    10     6     5 ar  
    11    17    16 ar  
    12     2    19 ar  
    13    22     4 ar  
    14    16     9 ar  
    15    19     9 ar  
    16    19    20 1   
    17    10    13 ar  
    18    10    15 ar  
    19     9    15 1   
    20    13    12 ar  
    21    24     8 1   
    22    23     8 1   
    23     5     8 1   
    24     5    26 ar  
    25    15    14 ar  
    26     4    26 ar  
    27     8    25 1   
    28    12    40 1   
    29    12    11 ar  
    30    14    11 ar  
    31     1    27 1   
    32     2    28 1   
    33     4    29 1   
    34     6    30 1   
    35    10    31 1   
    36    11    32 1   
    37    13    33 1   
    38    14    34 1   
    39    18    35 1   
    40    18    36 1   
    41    18    37 1   
    42    20    38 1   
    43    26    39 1   
@<TRIPOS>SUBSTRUCTURE
     1 6UG         1 TEMP              0 ****  ****    0 ROOT
