@<TRIPOS>MOLECULE
6UI
   38    41     1     0     0
SMALL
bcc


@<TRIPOS>ATOM
      1 CAW        -0.1270    0.0280   -0.0700 c3        1 6UI      0.114700
      2 OAV         1.2950    0.0500   -0.0250 os        1 6UI     -0.327900
      3 CAS         1.8700    0.0300    1.2330 ca        1 6UI      0.125100
      4 CAR         3.2560    0.0800    1.2520 ca        1 6UI     -0.161000
      5 CAT         1.1240   -0.0400    2.4390 ca        1 6UI     -0.187000
      6 CAU         1.7850   -0.0590    3.6430 ca        1 6UI     -0.080000
      7 CAP         3.2030   -0.0110    3.7010 ca        1 6UI     -0.073000
      8 CAQ         3.8950   -0.0290    4.9420 ca        1 6UI     -0.073000
      9 CAO         3.9400    0.0600    2.4900 ca        1 6UI     -0.001000
     10 CAN         5.3620    0.1140    2.5550 ca        1 6UI     -0.131000
     11 CAM         6.0090    0.0900    3.7620 ca        1 6UI     -0.108000
     12 CAL         5.2740    0.0120    4.9800 ca        1 6UI     -0.129500
     13 CAK         5.9830    0.0090    6.2480 cc        1 6UI      0.390800
     14 NAJ         5.5140    0.7050    7.3730 nc        1 6UI     -0.661000
     15 CAI         6.4250    0.5010    8.3460 cd        1 6UI      0.405400
     16 NAH         7.4790   -0.2980    7.9050 na        1 6UI     -0.312900
     17 CAG         7.2120   -0.6330    6.5680 cd        1 6UI     -0.168600
     18 CAF         8.0780   -1.4950    5.7910 ca        1 6UI      0.027000
     19 CAA         9.4710   -1.4790    5.9680 ca        1 6UI     -0.240300
     20 CAB        10.2580   -2.3540    5.2000 ca        1 6UI      0.395700
     21 NAC         9.7530   -3.2160    4.2960 nb        1 6UI     -0.662000
     22 CAD         8.4160   -3.2190    4.1320 ca        1 6UI      0.395700
     23 CAE         7.5400   -2.3860    4.8490 ca        1 6UI     -0.240300
     24 HAW1       -0.3510    0.0650   -1.1660 h1        1 6UI      0.044367
     25 HAW2       -0.5540    0.9200    0.4490 h1        1 6UI      0.044367
     26 HAW3       -0.5220   -0.9150    0.3800 h1        1 6UI      0.044367
     27 HAR         3.8220    0.1360    0.3110 ha        1 6UI      0.150000
     28 HAT         0.0260   -0.0770    2.4090 ha        1 6UI      0.138000
     29 HAU         1.2200   -0.1110    4.5870 ha        1 6UI      0.136000
     30 HAQ         3.3070   -0.0710    5.8720 ha        1 6UI      0.148000
     31 HAN         5.9290    0.1790    1.6140 ha        1 6UI      0.137000
     32 HAM         7.1080    0.1330    3.8130 ha        1 6UI      0.139000
     33 HAI         6.3720    0.9060    9.3630 h5        1 6UI      0.065100
     34 HAH         8.2550   -0.6100    8.4270 hn        1 6UI      0.305700
     35 HAA         9.9500   -0.7900    6.6760 ha        1 6UI      0.150500
     36 HAE         6.4550   -2.4250    4.6720 ha        1 6UI      0.150500
     37 HAB        11.3570   -2.3650    5.3120 h4        1 6UI      0.025100
     38 HAD         8.0250   -3.9320    3.3840 h4        1 6UI      0.025100
@<TRIPOS>BOND
     1    1    2 1   
     2    1   24 1   
     3    1   25 1   
     4    1   26 1   
     5    2    3 1   
     6    3    4 ar  
     7    3    5 ar  
     8    4    9 ar  
     9    4   27 1   
    10    5    6 ar  
    11    5   28 1   
    12    6    7 ar  
    13    6   29 1   
    14    7    8 ar  
    15    7    9 ar  
    16    8   12 ar  
    17    8   30 1   
    18    9   10 ar  
    19   10   11 ar  
    20   10   31 1   
    21   11   12 ar  
    22   11   32 1   
    23   12   13 1   
    24   13   14 1   
    25   13   17 2   
    26   14   15 2   
    27   15   16 1   
    28   15   33 1   
    29   16   17 1   
    30   16   34 1   
    31   17   18 1   
    32   18   19 ar  
    33   18   23 ar  
    34   19   20 ar  
    35   19   35 1   
    36   20   21 ar  
    37   20   37 1   
    38   21   22 ar  
    39   22   23 ar  
    40   22   38 1   
    41   23   36 1   
@<TRIPOS>SUBSTRUCTURE
     1 6UI         1 TEMP              0 ****  ****    0 ROOT
