@<TRIPOS>MOLECULE
molecule
   38    41     1     0     0
SMALL
bcc


@<TRIPOS>ATOM
      1 CAW          0.0000     0.0000     0.0000 c3         1 6UI       0.128700
      2 OAV          1.4300     0.0000     0.0000 os         1 6UI      -0.329900
      3 CAS          2.0460     0.0000     1.2120 ca         1 6UI       0.142100
      4 CAR          3.4200    -0.0000     1.2750 ca         1 6UI      -0.164000
      5 CAT          1.2770     0.0070     2.3780 ca         1 6UI      -0.207000
      6 CAU          1.8670     0.0080     3.6040 ca         1 6UI      -0.073000
      7 CAP          3.2690     0.0020     3.7070 ca         1 6UI      -0.074000
      8 CAQ          3.9020     0.0050     4.9590 ca         1 6UI      -0.073000
      9 CAO          4.0560     0.0010     2.5270 ca         1 6UI       0.003000
     10 CAN          5.4600     0.0010     2.6260 ca         1 6UI      -0.131000
     11 CAM          6.0540     0.0010     3.8480 ca         1 6UI      -0.105000
     12 CAL          5.2840    -0.0010     5.0240 ca         1 6UI      -0.125500
     13 CAK          5.9580     0.0010     6.3430 cc         1 6UI       0.401800
     14 NAJ          5.5310     0.6280     7.4540 nc         1 6UI      -0.688000
     15 CAI          6.3730     0.4130     8.4270 cd         1 6UI       0.407400
     16 NAH          7.3840    -0.3660     7.9860 na         1 6UI      -0.285900
     17 CAG          7.1380    -0.6460     6.6610 cd         1 6UI      -0.190600
     18 CAF          7.9690    -1.4690     5.7600 ca         1 6UI       0.025000
     19 CAA          9.3620    -1.3200     5.7290 ca         1 6UI      -0.244300
     20 CAB         10.0990    -2.1110     4.8730 ca         1 6UI       0.421200
     21 NAC          9.5090    -2.9960     4.0910 nb         1 6UI      -0.691000
     22 CAD          8.2010    -3.1680     4.0880 ca         1 6UI       0.421200
     23 CAE          7.3870    -2.4250     4.9160 ca         1 6UI      -0.244300
     24 HAW1        -0.3610    -0.0040    -1.0210 h1         1 6UI       0.041367
     25 HAW2        -0.3610    -0.8820     0.5140 h1         1 6UI       0.041367
     26 HAW3        -0.3610     0.8870     0.5070 h1         1 6UI       0.041367
     27 HAR          4.0040    -0.1240     0.3710 ha         1 6UI       0.147000
     28 HAT          0.1960     0.0120     2.3060 ha         1 6UI       0.134000
     29 HAU          1.2570     0.0130     4.5000 ha         1 6UI       0.135000
     30 HAQ          3.3140     0.0030     5.8690 ha         1 6UI       0.148000
     31 HAN          6.0670     0.0020     1.7290 ha         1 6UI       0.136000
     32 HAM          7.1350    -0.0030     3.9170 ha         1 6UI       0.137000
     33 HAI          6.2770     0.8010     9.4330 h5         1 6UI       0.067100
     34 HAH          8.1650    -0.6850     8.5240 hn         1 6UI       0.303700
     35 HAA          9.8520    -0.5960     6.3670 ha         1 6UI       0.146500
     36 HAE          6.3140    -2.5710     4.9080 ha         1 6UI       0.146500
     37 HAB         11.1770    -2.0040     4.8410 h4         1 6UI       0.026100
     38 HAD          7.7610    -3.9080     3.4300 h4         1 6UI       0.026100
@<TRIPOS>BOND
     1     1     2 1   
     2     2     3 1   
     3     3     4 ar  
     4     3     5 ar  
     5     4     9 ar  
     6     5     6 ar  
     7     6     7 ar  
     8     7     8 ar  
     9     7     9 ar  
    10     8    12 ar  
    11     9    10 ar  
    12    10    11 ar  
    13    11    12 ar  
    14    12    13 1   
    15    13    14 1   
    16    13    17 2   
    17    14    15 2   
    18    15    16 1   
    19    16    17 1   
    20    17    18 1   
    21    18    19 ar  
    22    18    23 ar  
    23    19    20 ar  
    24    20    21 ar  
    25    21    22 ar  
    26    22    23 ar  
    27     1    24 1   
    28     1    25 1   
    29     1    26 1   
    30     4    27 1   
    31     5    28 1   
    32     6    29 1   
    33     8    30 1   
    34    10    31 1   
    35    11    32 1   
    36    15    33 1   
    37    16    34 1   
    38    19    35 1   
    39    23    36 1   
    40    20    37 1   
    41    22    38 1   
@<TRIPOS>SUBSTRUCTURE
     1 6UI         1 TEMP              0 ****  ****    0 ROOT
