@<TRIPOS>MOLECULE
6UJ
   45    48     1     0     0
SMALL
bcc


@<TRIPOS>ATOM
      1 C2           0.0000     0.0000     0.0000 ca         1 6UJ       0.435200
      2 C3           1.3910     0.0000     0.0000 ca         1 6UJ      -0.315000
      3 C5           1.8900    -1.4830    -4.4840 ca         1 6UJ      -0.081400
      4 C7           0.5150    -3.2580    -5.3530 ca         1 6UJ      -0.074000
      5 C9           1.8710    -1.9950    -6.8700 ca         1 6UJ      -0.019000
      6 C10          2.3350    -1.7300    -8.1710 ca         1 6UJ      -0.080000
      7 C11          3.2380    -0.7330    -8.3740 ca         1 6UJ      -0.104000
      8 C12          3.7140     0.0320    -7.3100 ca         1 6UJ      -0.092000
      9 C13          3.2860    -0.1970    -6.0380 ca         1 6UJ      -0.108000
     10 C15          2.0540     0.0000     1.2370 cp         1 6UJ       0.445800
     11 C18          5.6500    -0.7920     0.4870 ca         1 6UJ      -0.104000
     12 C20          5.5740     0.7750     2.3010 ca         1 6UJ      -0.104000
     13 C21          4.1950     0.7790     2.2480 ca         1 6UJ      -0.084000
     14 O            0.5010    -1.1240    -2.2430 o          1 6UJ      -0.684100
     15 C4           1.6150    -0.6350    -2.2810 c          1 6UJ       0.548100
     16 N2           2.3540    -0.7290    -3.4040 ns         1 6UJ      -0.030100
     17 C14          2.3550    -1.2170    -5.7900 ca         1 6UJ      -0.047000
     18 C8           0.9470    -3.0250    -6.6220 ca         1 6UJ      -0.109000
     19 C6           0.9790    -2.4970    -4.2840 ca         1 6UJ      -0.121000
     20 N1           2.1090    -0.0010    -1.2000 ns         1 6UJ      -0.041100
     21 N           -0.6430     0.0050     1.1570 nb         1 6UJ      -0.606000
     22 N3           1.3290     0.0000     2.3530 nb         1 6UJ      -0.598000
     23 C1           0.0130     0.0110     2.3010 ca         1 6UJ       0.580300
     24 C           -0.7690     0.0180     3.5900 c3         1 6UJ      -0.030400
     25 C16          3.5350    -0.0010     1.2990 cp         1 6UJ      -0.157500
     26 C19          6.3000    -0.0090     1.4230 ca         1 6UJ      -0.089000
     27 C17          4.2710    -0.7920     0.4210 ca         1 6UJ      -0.084000
     28 H1          -0.5490    -0.0020    -0.9340 h4         1 6UJ       0.034100
     29 H2          -0.2010    -4.0510    -5.1710 ha         1 6UJ       0.104000
     30 H3           1.9740    -2.3160    -9.0080 ha         1 6UJ       0.107000
     31 H4           3.5930    -0.5310    -9.3770 ha         1 6UJ       0.102000
     32 H5           4.4330     0.8200    -7.4990 ha         1 6UJ       0.100000
     33 H6           3.6650     0.4050    -5.2200 ha         1 6UJ       0.096000
     34 H7           6.2240    -1.4060    -0.1970 ha         1 6UJ       0.106000
     35 H8           6.0880     1.3830     3.0350 ha         1 6UJ       0.106000
     36 H9           3.6270     1.3940     2.9360 ha         1 6UJ       0.115000
     37 H10          3.2510    -0.2880    -3.4500 hn         1 6UJ       0.166500
     38 H11          0.5740    -3.6280    -7.4410 ha         1 6UJ       0.107000
     39 H12          0.6190    -2.7040    -3.2830 ha         1 6UJ       0.162000
     40 H13          2.9660     0.5110    -1.2690 hn         1 6UJ       0.175500
     41 H14         -0.5750     0.9390     4.1250 hc         1 6UJ       0.018367
     42 H15         -1.8270    -0.0570     3.3710 hc         1 6UJ       0.018367
     43 H16         -0.4660    -0.8250     4.2000 hc         1 6UJ       0.018367
     44 H17          7.3830    -0.0110     1.4700 ha         1 6UJ       0.104000
     45 H18          3.7630    -1.4060    -0.3130 ha         1 6UJ       0.115000
@<TRIPOS>BOND
     1     1     2 ar  
     2     1    21 ar  
     3     1    28 1   
     4     2    10 ar  
     5     2    20 1   
     6     3    16 1   
     7     3    17 ar  
     8     3    19 ar  
     9     4    18 ar  
    10     4    19 ar  
    11     4    29 1   
    12     5     6 ar  
    13     5    17 ar  
    14     5    18 ar  
    15     6     7 ar  
    16     6    30 1   
    17     7     8 ar  
    18     7    31 1   
    19     8     9 ar  
    20     8    32 1   
    21     9    17 ar  
    22     9    33 1   
    23    10    22 ar  
    24    10    25 1   
    25    11    26 ar  
    26    11    27 ar  
    27    11    34 1   
    28    12    13 ar  
    29    12    26 ar  
    30    12    35 1   
    31    13    25 ar  
    32    13    36 1   
    33    14    15 2   
    34    15    16 1   
    35    15    20 1   
    36    16    37 1   
    37    18    38 1   
    38    19    39 1   
    39    20    40 1   
    40    21    23 ar  
    41    22    23 ar  
    42    23    24 1   
    43    24    41 1   
    44    24    42 1   
    45    24    43 1   
    46    25    27 ar  
    47    26    44 1   
    48    27    45 1   
@<TRIPOS>SUBSTRUCTURE
     1 6UJ         1 TEMP              0 ****  ****    0 ROOT
