@<TRIPOS>MOLECULE
molecule
   45    48     1     0     0
SMALL
bcc


@<TRIPOS>ATOM
      1 C2           0.0000     0.0000     0.0000 ca         1 6UJ       0.462200
      2 C3           1.3910     0.0000     0.0000 ca         1 6UJ      -0.180000
      3 C5           1.8900    -1.4830    -4.4840 ca         1 6UJ       0.067600
      4 C7           0.5150    -3.2580    -5.3530 ca         1 6UJ      -0.103000
      5 C9           1.8710    -1.9950    -6.8700 ca         1 6UJ      -0.019000
      6 C10          2.3350    -1.7300    -8.1710 ca         1 6UJ      -0.111000
      7 C11          3.2380    -0.7330    -8.3740 ca         1 6UJ      -0.127000
      8 C12          3.7140     0.0320    -7.3100 ca         1 6UJ      -0.122000
      9 C13          3.2860    -0.1970    -6.0380 ca         1 6UJ      -0.125000
     10 C15          2.0540     0.0000     1.2370 cp         1 6UJ       0.490800
     11 C18          5.6500    -0.7920     0.4870 ca         1 6UJ      -0.135000
     12 C20          5.5740     0.7750     2.3010 ca         1 6UJ      -0.135000
     13 C21          4.1950     0.7790     2.2480 ca         1 6UJ      -0.103500
     14 O            0.5010    -1.1240    -2.2430 o          1 6UJ      -0.638100
     15 C4           1.6150    -0.6350    -2.2810 c          1 6UJ       0.780100
     16 N2           2.3540    -0.7290    -3.4040 ns         1 6UJ      -0.475100
     17 C14          2.3550    -1.2170    -5.7900 ca         1 6UJ      -0.053000
     18 C8           0.9470    -3.0250    -6.6220 ca         1 6UJ      -0.138000
     19 C6           0.9790    -2.4970    -4.2840 ca         1 6UJ      -0.140000
     20 N1           2.1090    -0.0010    -1.2000 ns         1 6UJ      -0.481100
     21 N           -0.6430     0.0050     1.1570 nb         1 6UJ      -0.723000
     22 N3           1.3290     0.0000     2.3530 nb         1 6UJ      -0.719000
     23 C1           0.0130     0.0110     2.3010 ca         1 6UJ       0.669300
     24 C           -0.7690     0.0180     3.5900 c3         1 6UJ      -0.120400
     25 C16          3.5350    -0.0010     1.2990 cp         1 6UJ      -0.155500
     26 C19          6.3000    -0.0090     1.4230 ca         1 6UJ      -0.115000
     27 C17          4.2710    -0.7920     0.4210 ca         1 6UJ      -0.103500
     28 H1          -0.5490    -0.0020    -0.9340 h4         1 6UJ       0.071100
     29 H2          -0.2010    -4.0510    -5.1710 ha         1 6UJ       0.135000
     30 H3           1.9740    -2.3160    -9.0080 ha         1 6UJ       0.135000
     31 H4           3.5930    -0.5310    -9.3770 ha         1 6UJ       0.130000
     32 H5           4.4330     0.8200    -7.4990 ha         1 6UJ       0.128000
     33 H6           3.6650     0.4050    -5.2200 ha         1 6UJ       0.119000
     34 H7           6.2240    -1.4060    -0.1970 ha         1 6UJ       0.134000
     35 H8           6.0880     1.3830     3.0350 ha         1 6UJ       0.134000
     36 H9           3.6270     1.3940     2.9360 ha         1 6UJ       0.144500
     37 H10          3.2510    -0.2880    -3.4500 hn         1 6UJ       0.322500
     38 H11          0.5740    -3.6280    -7.4410 ha         1 6UJ       0.133000
     39 H12          0.6190    -2.7040    -3.2830 ha         1 6UJ       0.178000
     40 H13          2.9660     0.5110    -1.2690 hn         1 6UJ       0.329500
     41 H14         -0.5750     0.9390     4.1250 hc         1 6UJ       0.060033
     42 H15         -1.8270    -0.0570     3.3710 hc         1 6UJ       0.060033
     43 H16         -0.4660    -0.8250     4.2000 hc         1 6UJ       0.060033
     44 H17          7.3830    -0.0110     1.4700 ha         1 6UJ       0.132000
     45 H18          3.7630    -1.4060    -0.3130 ha         1 6UJ       0.144500
@<TRIPOS>BOND
     1     4    19 ar  
     2     4    18 ar  
     3    14    15 2   
     4    19     3 ar  
     5    24    23 1   
     6    21    23 ar  
     7    21     1 ar  
     8    23    22 ar  
     9    15    16 1   
    10    15    20 1   
    11    18     5 ar  
    12    16     3 1   
    13     1     2 ar  
    14    22    10 ar  
    15     3    17 ar  
    16    27    11 ar  
    17    27    25 ar  
    18     2    10 ar  
    19     2    20 1   
    20    10    25 1   
    21    11    26 ar  
    22     5    17 ar  
    23     5     6 ar  
    24    25    13 ar  
    25    17     9 ar  
    26     6     7 ar  
    27    26    12 ar  
    28    13    12 ar  
    29     9     8 ar  
    30     7     8 ar  
    31     1    28 1   
    32     4    29 1   
    33     6    30 1   
    34     7    31 1   
    35     8    32 1   
    36     9    33 1   
    37    11    34 1   
    38    12    35 1   
    39    13    36 1   
    40    16    37 1   
    41    18    38 1   
    42    19    39 1   
    43    20    40 1   
    44    24    41 1   
    45    24    42 1   
    46    24    43 1   
    47    26    44 1   
    48    27    45 1   
@<TRIPOS>SUBSTRUCTURE
     1 6UJ         1 TEMP              0 ****  ****    0 ROOT
