@<TRIPOS>MOLECULE
6UK
   45    47     1     0     0
SMALL
bcc


@<TRIPOS>ATOM
      1 C2           0.0000     0.0000     0.0000 ca         1 6UK       0.406200
      2 C3           0.0120     0.0010     2.3010 ca         1 6UK       0.567300
      3 C5           1.5020    -0.3560    -2.3490 c          1 6UK       0.566100
      4 C7           2.4400    -0.4150    -5.9250 ca         1 6UK      -0.061300
      5 C9           3.1760     0.9110    -7.7780 ca         1 6UK      -0.065000
      6 C10          4.1620    -0.0190    -8.0520 ca         1 6UK      -0.099000
      7 C11          4.2880    -1.1450    -7.2610 ca         1 6UK      -0.046000
      8 C12          3.4270    -1.3440    -6.1980 ca         1 6UK      -0.199300
      9 C13          3.5640    -2.5730    -5.3360 c3         1 6UK       0.645200
     10 C15          4.1970     0.8230     2.2100 ca         1 6UK      -0.087500
     11 C18          5.6490    -0.8190     0.5120 ca         1 6UK      -0.102500
     12 F2           3.8170    -2.1890    -4.0150 f          1 6UK      -0.206633
     13 F            2.3780    -3.3130    -5.3890 f          1 6UK      -0.206633
     14 F1           4.6240    -3.3550    -5.8060 f          1 6UK      -0.206633
     15 C8           2.3150     0.7120    -6.7160 ca         1 6UK      -0.091000
     16 C6           1.4980    -0.6340    -4.7690 c3         1 6UK       0.097300
     17 N3           2.1580    -0.2460    -3.5210 ns         1 6UK      -0.210900
     18 O            0.3610    -0.7780    -2.3280 o          1 6UK      -0.693100
     19 N2           2.1090     0.0000    -1.2000 ns         1 6UK      -0.035100
     20 C1           1.3910     0.0000     0.0000 ca         1 6UK      -0.303000
     21 C            2.0530     0.0000     1.2370 cp         1 6UK       0.428800
     22 N1           1.3280     0.0000     2.3530 nb         1 6UK      -0.592000
     23 C4          -0.7690     0.0010     3.5890 c3         1 6UK      -0.028400
     24 N           -0.6430     0.0060     1.1570 nb         1 6UK      -0.600000
     25 C14          3.5340    -0.0000     1.3000 cp         1 6UK      -0.153500
     26 C19          4.2700    -0.8230     0.4490 ca         1 6UK      -0.087500
     27 C17          6.3000     0.0000     1.4170 ca         1 6UK      -0.093000
     28 C16          5.5750     0.8190     2.2630 ca         1 6UK      -0.102500
     29 H1          -0.5490     0.0040    -0.9340 h4         1 6UK       0.052100
     30 H2           3.0770     1.7940    -8.3980 ha         1 6UK       0.109000
     31 H3           4.8370     0.1370    -8.8850 ha         1 6UK       0.113000
     32 H4           5.0610    -1.8740    -7.4750 ha         1 6UK       0.124000
     33 H5           3.6300     1.4650     2.8730 ha         1 6UK       0.116500
     34 H6           6.2220    -1.4580    -0.1480 ha         1 6UK       0.105500
     35 H7           1.5420     1.4400    -6.5010 ha         1 6UK       0.117000
     36 H8           1.2220    -1.6800    -4.7220 h1         1 6UK       0.044200
     37 H9           0.6090    -0.0310    -4.9100 h1         1 6UK       0.044200
     38 H10          3.0770     0.1500    -3.5430 hn         1 6UK       0.177500
     39 H11          3.0600     0.3110    -1.2140 hn         1 6UK       0.179500
     40 H12         -1.8270    -0.0740     3.3700 hc         1 6UK       0.017033
     41 H13         -0.5770     0.9210     4.1280 hc         1 6UK       0.017033
     42 H14         -0.4650    -0.8430     4.1960 hc         1 6UK       0.017033
     43 H15          3.7610    -1.4650    -0.2590 ha         1 6UK       0.116500
     44 H16          7.3830     0.0000     1.4620 ha         1 6UK       0.103000
     45 H17          6.0910     1.4580     2.9690 ha         1 6UK       0.105500
@<TRIPOS>BOND
     1     1    20 ar  
     2     1    24 ar  
     3     1    29 1   
     4     2    22 ar  
     5     2    23 1   
     6     2    24 ar  
     7     3    17 1   
     8     3    18 2   
     9     3    19 1   
    10     4     8 ar  
    11     4    15 ar  
    12     4    16 1   
    13     5     6 ar  
    14     5    15 ar  
    15     5    30 1   
    16     6     7 ar  
    17     6    31 1   
    18     7     8 ar  
    19     7    32 1   
    20     8     9 1   
    21     9    12 1   
    22     9    13 1   
    23     9    14 1   
    24    10    25 ar  
    25    10    28 ar  
    26    10    33 1   
    27    11    26 ar  
    28    11    27 ar  
    29    11    34 1   
    30    15    35 1   
    31    16    17 1   
    32    16    36 1   
    33    16    37 1   
    34    17    38 1   
    35    19    20 1   
    36    19    39 1   
    37    20    21 ar  
    38    21    22 ar  
    39    21    25 1   
    40    23    40 1   
    41    23    41 1   
    42    23    42 1   
    43    25    26 ar  
    44    26    43 1   
    45    27    28 ar  
    46    27    44 1   
    47    28    45 1   
@<TRIPOS>SUBSTRUCTURE
     1 6UK         1 TEMP              0 ****  ****    0 ROOT
