@<TRIPOS>MOLECULE
molecule
   45    47     1     0     0
SMALL
bcc


@<TRIPOS>ATOM
      1 C2           0.0000     0.0000     0.0000 ca         1 6UK       0.443200
      2 C3           0.0120     0.0010     2.3010 ca         1 6UK       0.658300
      3 C5           1.5020    -0.3560    -2.3490 c          1 6UK       0.783100
      4 C7           2.4400    -0.4150    -5.9250 ca         1 6UK      -0.071300
      5 C9           3.1760     0.9110    -7.7780 ca         1 6UK      -0.102000
      6 C10          4.1620    -0.0190    -8.0520 ca         1 6UK      -0.125000
      7 C11          4.2880    -1.1450    -7.2610 ca         1 6UK      -0.085000
      8 C12          3.4270    -1.3440    -6.1980 ca         1 6UK      -0.169300
      9 C13          3.5640    -2.5730    -5.3360 c3         1 6UK       0.675200
     10 C15          4.1970     0.8230     2.2100 ca         1 6UK      -0.107500
     11 C18          5.6490    -0.8190     0.5120 ca         1 6UK      -0.133000
     12 F2           3.8170    -2.1890    -4.0150 f          1 6UK      -0.220633
     13 F            2.3780    -3.3130    -5.3890 f          1 6UK      -0.220633
     14 F1           4.6240    -3.3550    -5.8060 f          1 6UK      -0.220633
     15 C8           2.3150     0.7120    -6.7160 ca         1 6UK      -0.116000
     16 C6           1.4980    -0.6340    -4.7690 c3         1 6UK       0.161300
     17 N3           2.1580    -0.2460    -3.5210 ns         1 6UK      -0.592900
     18 O            0.3610    -0.7780    -2.3280 o          1 6UK      -0.651100
     19 N2           2.1090     0.0000    -1.2000 ns         1 6UK      -0.476100
     20 C1           1.3910     0.0000     0.0000 ca         1 6UK      -0.168000
     21 C            2.0530     0.0000     1.2370 cp         1 6UK       0.475800
     22 N1           1.3280     0.0000     2.3530 nb         1 6UK      -0.714000
     23 C4          -0.7690     0.0010     3.5890 c3         1 6UK      -0.118400
     24 N           -0.6430     0.0060     1.1570 nb         1 6UK      -0.719000
     25 C14          3.5340    -0.0000     1.3000 cp         1 6UK      -0.151500
     26 C19          4.2700    -0.8230     0.4490 ca         1 6UK      -0.107500
     27 C17          6.3000     0.0000     1.4170 ca         1 6UK      -0.119000
     28 C16          5.5750     0.8190     2.2630 ca         1 6UK      -0.133000
     29 H1          -0.5490     0.0040    -0.9340 h4         1 6UK       0.083100
     30 H2           3.0770     1.7940    -8.3980 ha         1 6UK       0.141000
     31 H3           4.8370     0.1370    -8.8850 ha         1 6UK       0.143000
     32 H4           5.0610    -1.8740    -7.4750 ha         1 6UK       0.154000
     33 H5           3.6300     1.4650     2.8730 ha         1 6UK       0.146000
     34 H6           6.2220    -1.4580    -0.1480 ha         1 6UK       0.134000
     35 H7           1.5420     1.4400    -6.5010 ha         1 6UK       0.145000
     36 H8           1.2220    -1.6800    -4.7220 h1         1 6UK       0.072700
     37 H9           0.6090    -0.0310    -4.9100 h1         1 6UK       0.072700
     38 H10          3.0770     0.1500    -3.5430 hn         1 6UK       0.317500
     39 H11          3.0600     0.3110    -1.2140 hn         1 6UK       0.331500
     40 H12         -1.8270    -0.0740     3.3700 hc         1 6UK       0.058033
     41 H13         -0.5770     0.9210     4.1280 hc         1 6UK       0.058033
     42 H14         -0.4650    -0.8430     4.1960 hc         1 6UK       0.058033
     43 H15          3.7610    -1.4650    -0.2590 ha         1 6UK       0.146000
     44 H16          7.3830     0.0000     1.4620 ha         1 6UK       0.131000
     45 H17          6.0910     1.4580     2.9690 ha         1 6UK       0.134000
@<TRIPOS>BOND
     1    18     3 2
     2    23     2 1
     3    13     9 1
     4    24     2 ar
     5    24     1 ar
     6     2    22 ar
     7     1    20 ar
     8    22    21 ar
     9    10    28 ar
    10    10    25 ar
    11     3    19 1
    12     3    17 1
    13    20    21 ar
    14    20    19 1
    15    21    25 1
    16    16    17 1
    17    16     4 1
    18     9    14 1
    19     9    12 1
    20     9     8 1
    21    28    27 ar
    22    25    26 ar
    23     4     8 ar
    24     4    15 ar
    25     8     7 ar
    26    27    11 ar
    27    26    11 ar
    28    15     5 ar
    29     7     6 ar
    30     5     6 ar
    31     1    29 1
    32     5    30 1
    33     6    31 1
    34     7    32 1
    35    10    33 1
    36    11    34 1
    37    15    35 1
    38    16    36 1
    39    16    37 1
    40    17    38 1
    41    19    39 1
    42    23    40 1
    43    23    41 1
    44    23    42 1
    45    26    43 1
    46    27    44 1
    47    28    45 1
@<TRIPOS>SUBSTRUCTURE
     1 6UK         1 TEMP              0 ****  ****    0 ROOT
