@<TRIPOS>MOLECULE
molecule
  122   121     1     0     0
SMALL
bcc


@<TRIPOS>ATOM
      1 CBP          0.0000     0.0000     0.0000 c3         1 6UL      -0.092100
      2 CBN          1.5300     0.0000     0.0000 c3         1 6UL      -0.084400
      3 CAX          2.0400     0.0000     1.4430 c3         1 6UL      -0.081400
      4 CAY          3.5700     0.0000     1.4420 c3         1 6UL      -0.082400
      5 CAZ          4.0800    -0.0010     2.8850 c3         1 6UL      -0.082400
      6 CBA          5.6110     0.0000     2.8850 c3         1 6UL      -0.082400
      7 CBB          6.1210    -0.0010     4.3280 c3         1 6UL      -0.081400
      8 CBC          7.6500    -0.0010     4.3270 c3         1 6UL      -0.082400
      9 CBD          8.1610    -0.0010     5.7690 c3         1 6UL      -0.082400
     10 CBE          9.6910    -0.0010     5.7690 c3         1 6UL      -0.082400
     11 CBF         10.2000    -0.0010     7.2120 c3         1 6UL      -0.082400
     12 CBG         11.7310    -0.0010     7.2120 c3         1 6UL      -0.082400
     13 CBH         12.2410    -0.0010     8.6540 c3         1 6UL      -0.082400
     14 CBI         13.7720    -0.0010     8.6540 c3         1 6UL      -0.082400
     15 CBJ         14.2810    -0.0010    10.0960 c3         1 6UL      -0.081400
     16 CBK         15.8110    -0.0010    10.0960 c3         1 6UL      -0.082400
     17 CBL         16.3220    -0.0020    11.5380 c3         1 6UL      -0.082400
     18 CBM         17.8520    -0.0010    11.5380 c3         1 6UL      -0.081400
     19 CAW         18.3610    -0.0020    12.9810 c3         1 6UL      -0.081400
     20 CAV         19.8910    -0.0020    12.9810 c3         1 6UL      -0.082400
     21 CAU         20.4020    -0.0020    14.4230 c3         1 6UL      -0.079400
     22 CAT         21.9320    -0.0020    14.4220 c3         1 6UL      -0.079400
     23 CAS         22.4420    -0.0020    15.8650 c3         1 6UL      -0.085400
     24 CAR         23.9720    -0.0020    15.8650 c3         1 6UL       0.155400
     25 OAQ         24.4570    -0.0020    17.2340 os         1 6UL      -0.445900
     26 CAP         25.7760    -0.0020    17.4790 c          1 6UL       0.635100
     27 OBO         26.5610    -0.0010    16.5610 o          1 6UL      -0.553000
     28 CAO         26.2780    -0.0030    18.9000 c3         1 6UL      -0.124400
     29 CAN         27.8080    -0.0020    18.9000 c3         1 6UL      -0.072400
     30 CAM         28.3180    -0.0030    20.3420 c3         1 6UL      -0.084400
     31 CAL         29.8480    -0.0030    20.3420 c3         1 6UL      -0.080400
     32 CAK         30.3590    -0.0030    21.7850 c3         1 6UL      -0.082400
     33 CAJ         31.8890    -0.0030    21.7850 c3         1 6UL      -0.081400
     34 CAI         32.3990    -0.0020    23.2260 c3         1 6UL      -0.082400
     35 CAH         33.9290    -0.0020    23.2260 c3         1 6UL      -0.081400
     36 CAG         34.4390    -0.0020    24.6690 c3         1 6UL      -0.082400
     37 CAF         35.9680    -0.0020    24.6690 c3         1 6UL      -0.082400
     38 CAE         36.4790    -0.0020    26.1110 c3         1 6UL      -0.082400
     39 CAD         38.0090    -0.0020    26.1110 c3         1 6UL      -0.082400
     40 CAC         38.5190    -0.0030    27.5540 c3         1 6UL      -0.081400
     41 CAB         40.0490    -0.0020    27.5530 c3         1 6UL      -0.084400
     42 CAA         40.5600    -0.0030    28.9960 c3         1 6UL      -0.092100
     43 HBP1        -0.3610     0.8850     0.5110 hc         1 6UL       0.032367
     44 HBP2        -0.3610     0.0000    -1.0210 hc         1 6UL       0.032367
     45 HBP3        -0.3610    -0.8850     0.5110 hc         1 6UL       0.032367
     46 HBN1         1.8910     0.8850    -0.5110 hc         1 6UL       0.039700
     47 HBN2         1.8910    -0.8850    -0.5110 hc         1 6UL       0.039700
     48 HAX1         1.6790    -0.8850     1.9540 hc         1 6UL       0.040700
     49 HAX2         1.6790     0.8850     1.9540 hc         1 6UL       0.040700
     50 HAY1         3.9310    -0.8840     0.9310 hc         1 6UL       0.040700
     51 HAY2         3.9310     0.8850     0.9320 hc         1 6UL       0.040700
     52 HAZ1         3.7200    -0.8860     3.3950 hc         1 6UL       0.040700
     53 HAZ2         3.7190     0.8830     3.3960 hc         1 6UL       0.040700
     54 HBA1         5.9710     0.8850     2.3750 hc         1 6UL       0.040700
     55 HBA2         5.9720    -0.8840     2.3730 hc         1 6UL       0.040700
     56 HBB1         5.7600     0.8830     4.8390 hc         1 6UL       0.040700
     57 HBB2         5.7600    -0.8860     4.8380 hc         1 6UL       0.040700
     58 HBC1         8.0110     0.8840     3.8160 hc         1 6UL       0.040700
     59 HBC2         8.0110    -0.8850     3.8160 hc         1 6UL       0.040700
     60 HBD1         7.8000    -0.8850     6.2800 hc         1 6UL       0.040700
     61 HBD2         7.8000     0.8840     6.2800 hc         1 6UL       0.040700
     62 HBE1        10.0520    -0.8850     5.2590 hc         1 6UL       0.040700
     63 HBE2        10.0520     0.8840     5.2590 hc         1 6UL       0.040700
     64 HBF1         9.8390     0.8840     7.7220 hc         1 6UL       0.040700
     65 HBF2         9.8390    -0.8850     7.7220 hc         1 6UL       0.040700
     66 HBG1        12.0920     0.8840     6.7010 hc         1 6UL       0.040700
     67 HBG2        12.0920    -0.8850     6.7010 hc         1 6UL       0.040700
     68 HBH1        11.8800    -0.8850     9.1650 hc         1 6UL       0.040700
     69 HBH2        11.8800     0.8840     9.1650 hc         1 6UL       0.040700
     70 HBI1        14.1330     0.8840     8.1430 hc         1 6UL       0.040700
     71 HBI2        14.1330    -0.8850     8.1430 hc         1 6UL       0.040700
     72 HBJ1        13.9200     0.8840    10.6070 hc         1 6UL       0.040700
     73 HBJ2        13.9200    -0.8850    10.6070 hc         1 6UL       0.040700
     74 HBK1        16.1720     0.8840     9.5860 hc         1 6UL       0.040700
     75 HBK2        16.1720    -0.8850     9.5850 hc         1 6UL       0.040700
     76 HBL1        15.9610    -0.8870    12.0480 hc         1 6UL       0.040700
     77 HBL2        15.9600     0.8820    12.0500 hc         1 6UL       0.040700
     78 HBM1        18.2140    -0.8850    11.0270 hc         1 6UL       0.041700
     79 HBM2        18.2130     0.8840    11.0290 hc         1 6UL       0.041700
     80 HAW1        18.0000    -0.8870    13.4910 hc         1 6UL       0.041700
     81 HAW2        18.0000     0.8820    13.4920 hc         1 6UL       0.041700
     82 HAV1        20.2520    -0.8860    12.4700 hc         1 6UL       0.041700
     83 HAV2        20.2520     0.8830    12.4700 hc         1 6UL       0.041700
     84 HAU1        20.0410    -0.8860    14.9340 hc         1 6UL       0.043700
     85 HAU2        20.0410     0.8830    14.9340 hc         1 6UL       0.043700
     86 HAT1        22.2930     0.8830    13.9120 hc         1 6UL       0.044700
     87 HAT2        22.2930    -0.8860    13.9120 hc         1 6UL       0.044700
     88 HAS1        22.0810     0.8830    16.3760 hc         1 6UL       0.053700
     89 HAS2        22.0810    -0.8860    16.3760 hc         1 6UL       0.053700
     90 HAR1        24.3330    -0.8860    15.3540 h1         1 6UL       0.047700
     91 HAR2        24.3330     0.8830    15.3550 h1         1 6UL       0.047700
     92 HAO1        25.9180    -0.8880    19.4100 hc         1 6UL       0.070700
     93 HAO2        25.9160     0.8810    19.4110 hc         1 6UL       0.070700
     94 HAN1        28.1690     0.8840    18.3900 hc         1 6UL       0.058700
     95 HAN2        28.1700    -0.8850    18.3890 hc         1 6UL       0.058700
     96 HAM1        27.9570    -0.8870    20.8520 hc         1 6UL       0.040700
     97 HAM2        27.9570     0.8820    20.8530 hc         1 6UL       0.040700
     98 HAL1        30.2100    -0.8870    19.8310 hc         1 6UL       0.043700
     99 HAL2        30.2100     0.8820    19.8310 hc         1 6UL       0.043700
    100 HAK1        29.9970     0.8820    22.2950 hc         1 6UL       0.040700
    101 HAK2        29.9970    -0.8870    22.2950 hc         1 6UL       0.040700
    102 HAJ1        32.2500    -0.8870    21.2740 hc         1 6UL       0.041700
    103 HAJ2        32.2500     0.8820    21.2740 hc         1 6UL       0.041700
    104 HAI1        32.0380     0.8820    23.7370 hc         1 6UL       0.040700
    105 HAI2        32.0380    -0.8870    23.7370 hc         1 6UL       0.040700
    106 HAH1        34.2900    -0.8870    22.7160 hc         1 6UL       0.041700
    107 HAH2        34.2900     0.8820    22.7160 hc         1 6UL       0.041700
    108 HAG1        34.0780     0.8820    25.1800 hc         1 6UL       0.040700
    109 HAG2        34.0780    -0.8870    25.1800 hc         1 6UL       0.040700
    110 HAF1        36.3290    -0.8870    24.1580 hc         1 6UL       0.040700
    111 HAF2        36.3290     0.8820    24.1580 hc         1 6UL       0.040700
    112 HAE1        36.1180     0.8820    26.6220 hc         1 6UL       0.040700
    113 HAE2        36.1180    -0.8870    26.6220 hc         1 6UL       0.040700
    114 HAD1        38.3700    -0.8870    25.6000 hc         1 6UL       0.040700
    115 HAD2        38.3700     0.8820    25.6010 hc         1 6UL       0.040700
    116 HAC1        38.1580     0.8800    28.0650 hc         1 6UL       0.040700
    117 HAC2        38.1590    -0.8890    28.0640 hc         1 6UL       0.040700
    118 HAB1        40.4100    -0.8860    27.0420 hc         1 6UL       0.039700
    119 HAB2        40.4090     0.8830    27.0430 hc         1 6UL       0.039700
    120 HAA1        40.1990    -0.8890    29.5060 hc         1 6UL       0.032367
    121 HAA2        40.1980     0.8810    29.5070 hc         1 6UL       0.032367
    122 HAA3        41.6430    -0.0030    28.9950 hc         1 6UL       0.032367
@<TRIPOS>BOND
     1     1     2 1
     2     1    43 1
     3     1    44 1
     4     1    45 1
     5     2     3 1
     6     2    46 1
     7     2    47 1
     8     3     4 1
     9     3    48 1
    10     3    49 1
    11     4     5 1
    12     4    50 1
    13     4    51 1
    14     5     6 1
    15     5    52 1
    16     5    53 1
    17     6     7 1
    18     6    54 1
    19     6    55 1
    20     7     8 1
    21     7    56 1
    22     7    57 1
    23     8     9 1
    24     8    58 1
    25     8    59 1
    26     9    10 1
    27     9    60 1
    28     9    61 1
    29    10    11 1
    30    10    62 1
    31    10    63 1
    32    11    12 1
    33    11    64 1
    34    11    65 1
    35    12    13 1
    36    12    66 1
    37    12    67 1
    38    13    14 1
    39    13    68 1
    40    13    69 1
    41    14    15 1
    42    14    70 1
    43    14    71 1
    44    15    16 1
    45    15    72 1
    46    15    73 1
    47    16    17 1
    48    16    74 1
    49    16    75 1
    50    17    18 1
    51    17    76 1
    52    17    77 1
    53    18    19 1
    54    18    78 1
    55    18    79 1
    56    19    20 1
    57    19    80 1
    58    19    81 1
    59    20    21 1
    60    20    82 1
    61    20    83 1
    62    21    22 1
    63    21    84 1
    64    21    85 1
    65    22    23 1
    66    22    86 1
    67    22    87 1
    68    23    24 1
    69    23    88 1
    70    23    89 1
    71    24    25 1
    72    24    90 1
    73    24    91 1
    74    25    26 1
    75    26    27 2
    76    26    28 1
    77    28    29 1
    78    28    92 1
    79    28    93 1
    80    29    30 1
    81    29    94 1
    82    29    95 1
    83    30    31 1
    84    30    96 1
    85    30    97 1
    86    31    32 1
    87    31    98 1
    88    31    99 1
    89    32    33 1
    90    32   100 1
    91    32   101 1
    92    33    34 1
    93    33   102 1
    94    33   103 1
    95    34    35 1
    96    34   104 1
    97    34   105 1
    98    35    36 1
    99    35   106 1
   100    35   107 1
   101    36    37 1
   102    36   108 1
   103    36   109 1
   104    37    38 1
   105    37   110 1
   106    37   111 1
   107    38    39 1
   108    38   112 1
   109    38   113 1
   110    39    40 1
   111    39   114 1
   112    39   115 1
   113    40    41 1
   114    40   116 1
   115    40   117 1
   116    41    42 1
   117    41   118 1
   118    41   119 1
   119    42   120 1
   120    42   121 1
   121    42   122 1
@<TRIPOS>SUBSTRUCTURE
     1 6UL         1 TEMP              0 ****  ****    0 ROOT
