@<TRIPOS>MOLECULE
6UL
  122   121     1     0     0
SMALL
bcc


@<TRIPOS>ATOM
      1 CBP        -0.2940   -0.8240    0.8450 c3        1 6UL     -0.092100
      2 CBN         1.2100   -0.7710    0.7710 c3        1 6UL     -0.080400
      3 CAX         1.8300   -0.6770    2.1490 c3        1 6UL     -0.079400
      4 CAY         3.3410   -0.6250    2.0710 c3        1 6UL     -0.079400
      5 CAZ         3.9600   -0.5300    3.4490 c3        1 6UL     -0.079400
      6 CBA         5.4710   -0.4770    3.3700 c3        1 6UL     -0.079400
      7 CBB         6.0900   -0.3810    4.7480 c3        1 6UL     -0.079400
      8 CBC         7.6000   -0.3280    4.6690 c3        1 6UL     -0.079400
      9 CBD         8.2190   -0.2310    6.0470 c3        1 6UL     -0.079400
     10 CBE         9.7300   -0.1770    5.9690 c3        1 6UL     -0.079400
     11 CBF        10.3490   -0.0770    7.3470 c3        1 6UL     -0.079400
     12 CBG        11.8590   -0.0220    7.2680 c3        1 6UL     -0.079400
     13 CBH        12.4780    0.0800    8.6460 c3        1 6UL     -0.079400
     14 CBI        13.9880    0.1380    8.5670 c3        1 6UL     -0.079400
     15 CBJ        14.6070    0.2440    9.9440 c3        1 6UL     -0.079400
     16 CBK        16.1170    0.3050    9.8650 c3        1 6UL     -0.079400
     17 CBL        16.7360    0.4160   11.2420 c3        1 6UL     -0.079400
     18 CBM        18.2460    0.4810   11.1620 c3        1 6UL     -0.079400
     19 CAW        18.8640    0.5980   12.5390 c3        1 6UL     -0.079400
     20 CAV        20.3740    0.6660   12.4590 c3        1 6UL     -0.079400
     21 CAU        20.9920    0.7900   13.8350 c3        1 6UL     -0.078400
     22 CAT        22.5010    0.8630   13.7540 c3        1 6UL     -0.078400
     23 CAS        23.1140    0.9940   15.1310 c3        1 6UL     -0.085400
     24 CAR        24.6250    1.0690   15.0260 c3        1 6UL      0.139400
     25 OAQ        25.1120    1.2020   16.3720 os        1 6UL     -0.445900
     26 CAP        26.4680    1.3070   16.5260 c         1 6UL      0.631100
     27 OBO        27.1740    1.2710   15.5160 o         1 6UL     -0.544000
     28 CAO        26.8730    1.4730   17.9570 c3        1 6UL     -0.127400
     29 CAN        28.1930    0.7850   18.2330 c3        1 6UL     -0.079400
     30 CAM        28.6670    1.0770   19.6400 c3        1 6UL     -0.078400
     31 CAL        29.9800    0.3800   19.9270 c3        1 6UL     -0.079400
     32 CAK        30.4610    0.6750   21.3320 c3        1 6UL     -0.079400
     33 CAJ        31.7750   -0.0190   21.6190 c3        1 6UL     -0.079400
     34 CAI        32.2580    0.2780   23.0220 c3        1 6UL     -0.079400
     35 CAH        33.5740   -0.4140   23.3090 c3        1 6UL     -0.079400
     36 CAG        34.0570   -0.1160   24.7120 c3        1 6UL     -0.079400
     37 CAF        35.3740   -0.8060   24.9970 c3        1 6UL     -0.079400
     38 CAE        35.8580   -0.5070   26.4000 c3        1 6UL     -0.078400
     39 CAD        37.1750   -1.1960   26.6850 c3        1 6UL     -0.079400
     40 CAC        37.6590   -0.8980   28.0880 c3        1 6UL     -0.079400
     41 CAB        38.9770   -1.5850   28.3740 c3        1 6UL     -0.080400
     42 CAA        39.4630   -1.2910   29.7700 c3        1 6UL     -0.092100
     43 HBP1       -0.7310   -0.8930   -0.1800 hc        1 6UL      0.032700
     44 HBP2       -0.6970    0.0940    1.3380 hc        1 6UL      0.032700
     45 HBP3       -0.6300   -1.7120    1.4320 hc        1 6UL      0.032700
     46 HBN1        1.5940   -1.6880    0.2510 hc        1 6UL      0.038700
     47 HBN2        1.5260    0.1130    0.1580 hc        1 6UL      0.038700
     48 HAX1        1.4490    0.2400    2.6700 hc        1 6UL      0.039700
     49 HAX2        1.5160   -1.5610    2.7640 hc        1 6UL      0.039700
     50 HAY1        3.7220   -1.5420    1.5490 hc        1 6UL      0.039700
     51 HAY2        3.6550    0.2600    1.4550 hc        1 6UL      0.039700
     52 HAZ1        3.6460   -1.4140    4.0640 hc        1 6UL      0.039700
     53 HAZ2        3.5780    0.3880    3.9700 hc        1 6UL      0.039700
     54 HBA1        5.7850    0.4070    2.7540 hc        1 6UL      0.039700
     55 HBA2        5.8530   -1.3940    2.8490 hc        1 6UL      0.039700
     56 HBB1        5.7760   -1.2660    5.3630 hc        1 6UL      0.039700
     57 HBB2        5.7080    0.5360    5.2690 hc        1 6UL      0.039700
     58 HBC1        7.9140    0.5560    4.0530 hc        1 6UL      0.039700
     59 HBC2        7.9830   -1.2460    4.1490 hc        1 6UL      0.039700
     60 HBD1        7.8370    0.6870    6.5680 hc        1 6UL      0.039700
     61 HBD2        7.9060   -1.1150    6.6630 hc        1 6UL      0.039700
     62 HBE1       10.0430    0.7060    5.3510 hc        1 6UL      0.039700
     63 HBE2       10.1130   -1.0950    5.4500 hc        1 6UL      0.039700
     64 HBF1       10.0360   -0.9610    7.9640 hc        1 6UL      0.039700
     65 HBF2        9.9650    0.8400    7.8660 hc        1 6UL      0.039700
     66 HBG1       12.2430   -0.9410    6.7510 hc        1 6UL      0.039700
     67 HBG2       12.1720    0.8600    6.6490 hc        1 6UL      0.039700
     68 HBH1       12.1670   -0.8020    9.2640 hc        1 6UL      0.039700
     69 HBH2       12.0930    0.9980    9.1630 hc        1 6UL      0.039700
     70 HBI1       14.3730   -0.7820    8.0520 hc        1 6UL      0.039700
     71 HBI2       14.2990    1.0190    7.9460 hc        1 6UL      0.039700
     72 HBJ1       14.2200    1.1620   10.4600 hc        1 6UL      0.039700
     73 HBJ2       14.2980   -0.6380   10.5650 hc        1 6UL      0.039700
     74 HBK1       16.4260    1.1850    9.2420 hc        1 6UL      0.039700
     75 HBK2       16.5040   -0.6150    9.3520 hc        1 6UL      0.039700
     76 HBL1       16.3470    1.3350   11.7560 hc        1 6UL      0.039700
     77 HBL2       16.4290   -0.4650   11.8650 hc        1 6UL      0.039700
     78 HBM1       18.6350   -0.4400   10.6530 hc        1 6UL      0.039700
     79 HBM2       18.5520    1.3600   10.5360 hc        1 6UL      0.039700
     80 HAW1       18.4730    1.5170   13.0500 hc        1 6UL      0.039700
     81 HAW2       18.5600   -0.2820   13.1650 hc        1 6UL      0.039700
     82 HAV1       20.6780    1.5440   11.8300 hc        1 6UL      0.040700
     83 HAV2       20.7660   -0.2550   11.9520 hc        1 6UL      0.040700
     84 HAU1       20.5980    1.7100   14.3430 hc        1 6UL      0.041700
     85 HAU2       20.6900   -0.0890   14.4640 hc        1 6UL      0.041700
     86 HAT1       22.8960   -0.0590   13.2510 hc        1 6UL      0.042700
     87 HAT2       22.8020    1.7400   13.1220 hc        1 6UL      0.042700
     88 HAS1       22.7290    1.9150   15.6410 hc        1 6UL      0.053700
     89 HAS2       22.8260    0.1170   15.7680 hc        1 6UL      0.053700
     90 HAR1       25.0600    0.1400   14.5750 h1        1 6UL      0.051700
     91 HAR2       24.9590    1.9580   14.4300 h1        1 6UL      0.051700
     92 HAO1       26.9590    2.5750   18.1540 hc        1 6UL      0.077700
     93 HAO2       26.0690    1.0670   18.6260 hc        1 6UL      0.077700
     94 HAN1       28.0760   -0.3220   18.0930 hc        1 6UL      0.057700
     95 HAN2       28.9580    1.1330   17.4880 hc        1 6UL      0.057700
     96 HAM1       27.8920    0.7390   20.3780 hc        1 6UL      0.040700
     97 HAM2       28.7920    2.1830   19.7740 hc        1 6UL      0.040700
     98 HAL1       29.8540   -0.7280   19.7980 hc        1 6UL      0.042700
     99 HAL2       30.7530    0.7140   19.1860 hc        1 6UL      0.042700
    100 HAK1       29.6890    0.3400   22.0730 hc        1 6UL      0.039700
    101 HAK2       30.5850    1.7830   21.4620 hc        1 6UL      0.039700
    102 HAJ1       31.6510   -1.1270   21.4900 hc        1 6UL      0.040200
    103 HAJ2       32.5470    0.3150   20.8770 hc        1 6UL      0.040200
    104 HAI1       31.4870   -0.0580   23.7650 hc        1 6UL      0.039700
    105 HAI2       32.3800    1.3860   23.1510 hc        1 6UL      0.039700
    106 HAH1       34.3440   -0.0780   22.5660 hc        1 6UL      0.039700
    107 HAH2       33.4520   -1.5220   23.1800 hc        1 6UL      0.039700
    108 HAG1       34.1780    0.9920   24.8400 hc        1 6UL      0.039700
    109 HAG2       33.2870   -0.4530   25.4540 hc        1 6UL      0.039700
    110 HAF1       35.2530   -1.9140   24.8690 hc        1 6UL      0.039700
    111 HAF2       36.1440   -0.4690   24.2540 hc        1 6UL      0.039700
    112 HAE1       35.0880   -0.8450   27.1430 hc        1 6UL      0.039700
    113 HAE2       35.9770    0.6010   26.5290 hc        1 6UL      0.039700
    114 HAD1       37.0560   -2.3040   26.5560 hc        1 6UL      0.039700
    115 HAD2       37.9450   -0.8580   25.9420 hc        1 6UL      0.039700
    116 HAC1       36.8900   -1.2360   28.8310 hc        1 6UL      0.039700
    117 HAC2       37.7780    0.2100   28.2170 hc        1 6UL      0.039700
    118 HAB1       38.8560   -2.6930   28.2430 hc        1 6UL      0.038700
    119 HAB2       39.7450   -1.2470   27.6290 hc        1 6UL      0.038700
    120 HAA1       40.4350   -1.8070   29.9600 hc        1 6UL      0.032700
    121 HAA2       38.7220   -1.6440   30.5280 hc        1 6UL      0.032700
    122 HAA3       39.6130   -0.1930   29.9120 hc        1 6UL      0.032700
@<TRIPOS>BOND
     1    1    2 1   
     2    1   43 1   
     3    1   44 1   
     4    1   45 1   
     5    2    3 1   
     6    2   46 1   
     7    2   47 1   
     8    3    4 1   
     9    3   48 1   
    10    3   49 1   
    11    4    5 1   
    12    4   50 1   
    13    4   51 1   
    14    5    6 1   
    15    5   52 1   
    16    5   53 1   
    17    6    7 1   
    18    6   54 1   
    19    6   55 1   
    20    7    8 1   
    21    7   56 1   
    22    7   57 1   
    23    8    9 1   
    24    8   58 1   
    25    8   59 1   
    26    9   10 1   
    27    9   60 1   
    28    9   61 1   
    29   10   11 1   
    30   10   62 1   
    31   10   63 1   
    32   11   12 1   
    33   11   64 1   
    34   11   65 1   
    35   12   13 1   
    36   12   66 1   
    37   12   67 1   
    38   13   14 1   
    39   13   68 1   
    40   13   69 1   
    41   14   15 1   
    42   14   70 1   
    43   14   71 1   
    44   15   16 1   
    45   15   72 1   
    46   15   73 1   
    47   16   17 1   
    48   16   74 1   
    49   16   75 1   
    50   17   18 1   
    51   17   76 1   
    52   17   77 1   
    53   18   19 1   
    54   18   78 1   
    55   18   79 1   
    56   19   20 1   
    57   19   80 1   
    58   19   81 1   
    59   20   21 1   
    60   20   82 1   
    61   20   83 1   
    62   21   22 1   
    63   21   84 1   
    64   21   85 1   
    65   22   23 1   
    66   22   86 1   
    67   22   87 1   
    68   23   24 1   
    69   23   88 1   
    70   23   89 1   
    71   24   25 1   
    72   24   90 1   
    73   24   91 1   
    74   25   26 1   
    75   26   27 2   
    76   26   28 1   
    77   28   29 1   
    78   28   92 1   
    79   28   93 1   
    80   29   30 1   
    81   29   94 1   
    82   29   95 1   
    83   30   31 1   
    84   30   96 1   
    85   30   97 1   
    86   31   32 1   
    87   31   98 1   
    88   31   99 1   
    89   32   33 1   
    90   32  100 1   
    91   32  101 1   
    92   33   34 1   
    93   33  102 1   
    94   33  103 1   
    95   34   35 1   
    96   34  104 1   
    97   34  105 1   
    98   35   36 1   
    99   35  106 1   
   100   35  107 1   
   101   36   37 1   
   102   36  108 1   
   103   36  109 1   
   104   37   38 1   
   105   37  110 1   
   106   37  111 1   
   107   38   39 1   
   108   38  112 1   
   109   38  113 1   
   110   39   40 1   
   111   39  114 1   
   112   39  115 1   
   113   40   41 1   
   114   40  116 1   
   115   40  117 1   
   116   41   42 1   
   117   41  118 1   
   118   41  119 1   
   119   42  120 1   
   120   42  121 1   
   121   42  122 1   
@<TRIPOS>SUBSTRUCTURE
     1 6UL         1 TEMP              0 ****  ****    0 ROOT
