@<TRIPOS>MOLECULE
6UM
   38    40     1     0     0
SMALL
bcc


@<TRIPOS>ATOM
      1 C2           0.0000     0.0000     0.0000 ca         1 6UM       0.418200
      2 C3           0.0110     0.0000     2.3010 ca         1 6UM       0.573300
      3 N4           0.5670    -1.8120    -4.4970 nb         1 6UM      -0.550000
      4 C5           1.5560    -0.5090    -2.3160 c          1 6UM       0.540100
      5 C7           0.0230    -2.4120    -5.5390 ca         1 6UM       0.434200
      6 C9           1.9050    -1.8130    -6.8860 ca         1 6UM      -0.039000
      7 C10          2.4490    -1.1930    -5.7750 ca         1 6UM      -0.271300
      8 C11          3.5330    -0.0010     1.3030 cp         1 6UM      -0.152500
      9 C12          4.1940     0.8160     2.2190 ca         1 6UM      -0.086000
     10 C13          5.5730     0.8120     2.2740 ca         1 6UM      -0.103500
     11 C15          5.6490    -0.8100     0.5070 ca         1 6UM      -0.103500
     12 O            0.4040    -0.8950    -2.3020 o          1 6UM      -0.626100
     13 N3           2.2790    -0.5890    -3.4510 ns         1 6UM      -0.126400
     14 C6           1.7430    -1.2110    -4.5770 ca         1 6UM       0.371200
     15 C8           0.6690    -2.4330    -6.7590 ca         1 6UM      -0.255300
     16 C1           1.3910     0.0000     0.0000 ca         1 6UM      -0.308000
     17 C            2.0530     0.0000     1.2380 cp         1 6UM       0.434800
     18 N1           1.3260    -0.0000     2.3540 nb         1 6UM      -0.595000
     19 C4          -0.7720     0.0000     3.5880 c3         1 6UM      -0.029400
     20 N           -0.6440    -0.0010     1.1560 nb         1 6UM      -0.602000
     21 C16          4.2700    -0.8130     0.4420 ca         1 6UM      -0.086000
     22 C14          6.2990    -0.0010     1.4220 ca         1 6UM      -0.092000
     23 H1          -0.5490    -0.0010    -0.9340 h4         1 6UM       0.047100
     24 H3           2.4310    -1.8160    -7.8330 ha         1 6UM       0.107000
     25 H4           3.4110    -0.7000    -5.8380 ha         1 6UM       0.113000
     26 H5           3.6270     1.4530     2.8860 ha         1 6UM       0.115000
     27 H6           6.0870     1.4450     2.9870 ha         1 6UM       0.105000
     28 H7           6.2230    -1.4420    -0.1590 ha         1 6UM       0.105000
     29 H8           3.1910    -0.1780    -3.4930 hn         1 6UM       0.163500
     30 H9           0.2160    -2.9270    -7.6100 ha         1 6UM       0.115000
     31 H11         -1.8290    -0.0810     3.3680 hc         1 6UM       0.017700
     32 H12         -0.5850     0.9220     4.1250 hc         1 6UM       0.017700
     33 H13         -0.4650    -0.8410     4.1970 hc         1 6UM       0.017700
     34 H14          3.7620    -1.4480    -0.2730 ha         1 6UM       0.115000
     35 H15          7.3820    -0.0010     1.4690 ha         1 6UM       0.103000
     36 N2           2.1100     0.0010    -1.1980 ns         1 6UM      -0.045100
     37 H2          -0.9410    -2.8940    -5.4360 h4         1 6UM      -0.016900
     38 H10          3.0100     0.4360    -1.2400 hn         1 6UM       0.174500
@<TRIPOS>BOND
     1     1    16 ar  
     2     1    20 ar  
     3     1    23 1   
     4     2    18 ar  
     5     2    19 1   
     6     2    20 ar  
     7     3     5 ar  
     8     3    14 ar  
     9     4    12 2   
    10     4    13 1   
    11     4    36 1   
    12     5    15 ar  
    13     5    37 1   
    14     6     7 ar  
    15     6    15 ar  
    16     6    24 1   
    17     7    14 ar  
    18     7    25 1   
    19     8     9 ar  
    20     8    17 1   
    21     8    21 ar  
    22     9    10 ar  
    23     9    26 1   
    24    10    22 ar  
    25    10    27 1   
    26    11    21 ar  
    27    11    22 ar  
    28    11    28 1   
    29    13    14 1   
    30    13    29 1   
    31    15    30 1   
    32    16    17 ar  
    33    16    36 1   
    34    17    18 ar  
    35    19    31 1   
    36    19    32 1   
    37    19    33 1   
    38    21    34 1   
    39    22    35 1   
    40    36    38 1   
@<TRIPOS>SUBSTRUCTURE
     1 6UM         1 TEMP              0 ****  ****    0 ROOT
