@<TRIPOS>MOLECULE
molecule
   38    40     1     0     0
SMALL
bcc


@<TRIPOS>ATOM
      1 C2           0.0000     0.0000     0.0000 ca         1 6UM       0.452200
      2 C3           0.0110     0.0000     2.3010 ca         1 6UM       0.663300
      3 N4           0.5670    -1.8120    -4.4970 nb         1 6UM      -0.681000
      4 C5           1.5560    -0.5090    -2.3160 c          1 6UM       0.772100
      5 C7           0.0230    -2.4120    -5.5390 ca         1 6UM       0.456200
      6 C9           1.9050    -1.8130    -6.8860 ca         1 6UM      -0.064000
      7 C10          2.4490    -1.1930    -5.7750 ca         1 6UM      -0.298300
      8 C11          3.5330    -0.0010     1.3030 cp         1 6UM      -0.151500
      9 C12          4.1940     0.8160     2.2190 ca         1 6UM      -0.106000
     10 C13          5.5730     0.8120     2.2740 ca         1 6UM      -0.134500
     11 C15          5.6490    -0.8100     0.5070 ca         1 6UM      -0.134500
     12 O            0.4040    -0.8950    -2.3020 o          1 6UM      -0.579100
     13 N3           2.2790    -0.5890    -3.4510 ns         1 6UM      -0.560400
     14 C6           1.7430    -1.2110    -4.5770 ca         1 6UM       0.568200
     15 C8           0.6690    -2.4330    -6.7590 ca         1 6UM      -0.290300
     16 C1           1.3910     0.0000     0.0000 ca         1 6UM      -0.173000
     17 C            2.0530     0.0000     1.2380 cp         1 6UM       0.481800
     18 N1           1.3260    -0.0000     2.3540 nb         1 6UM      -0.717000
     19 C4          -0.7720     0.0000     3.5880 c3         1 6UM      -0.119400
     20 N           -0.6440    -0.0010     1.1560 nb         1 6UM      -0.720000
     21 C16          4.2700    -0.8130     0.4420 ca         1 6UM      -0.106000
     22 C14          6.2990    -0.0010     1.4220 ca         1 6UM      -0.117000
     23 H1          -0.5490    -0.0010    -0.9340 h4         1 6UM       0.081100
     24 H3           2.4310    -1.8160    -7.8330 ha         1 6UM       0.139000
     25 H4           3.4110    -0.7000    -5.8380 ha         1 6UM       0.133000
     26 H5           3.6270     1.4530     2.8860 ha         1 6UM       0.144500
     27 H6           6.0870     1.4450     2.9870 ha         1 6UM       0.133500
     28 H7           6.2230    -1.4420    -0.1590 ha         1 6UM       0.133500
     29 H8           3.1910    -0.1780    -3.4930 hn         1 6UM       0.325500
     30 H9           0.2160    -2.9270    -7.6100 ha         1 6UM       0.140000
     31 H11         -1.8290    -0.0810     3.3680 hc         1 6UM       0.058700
     32 H12         -0.5850     0.9220     4.1250 hc         1 6UM       0.058700
     33 H13         -0.4650    -0.8410     4.1970 hc         1 6UM       0.058700
     34 H14          3.7620    -1.4480    -0.2730 ha         1 6UM       0.144500
     35 H15          7.3820    -0.0010     1.4690 ha         1 6UM       0.132000
     36 N2           2.1100     0.0010    -1.1980 ns         1 6UM      -0.483100
     37 H2          -0.9410    -2.8940    -5.4360 h4         1 6UM       0.031100
     38 H10          3.0100     0.4360    -1.2400 hn         1 6UM       0.326500
@<TRIPOS>BOND
     1    15     6 ar  
     2    15     5 ar  
     3     6     7 ar  
     4     5     3 ar  
     5     7    14 ar  
     6    22    10 ar  
     7    22    11 ar  
     8    10     9 ar  
     9     3    14 ar  
    10    14    13 1   
    11    11    21 ar  
    12     9     8 ar  
    13    13     4 1   
    14    21     8 ar  
    15     8    17 1   
    16    36     4 1   
    17    36    16 1   
    18     4    12 2   
    19    17    16 ar  
    20    17    18 ar  
    21    16     1 ar  
    22    18     2 ar  
    23     1    20 ar  
    24     2    20 ar  
    25     2    19 1   
    26     1    23 1   
    27     5    37 1   
    28     6    24 1   
    29     7    25 1   
    30     9    26 1   
    31    10    27 1   
    32    11    28 1   
    33    13    29 1   
    34    15    30 1   
    35    36    38 1   
    36    19    31 1   
    37    19    32 1   
    38    19    33 1   
    39    21    34 1   
    40    22    35 1   
@<TRIPOS>SUBSTRUCTURE
     1 6UM         1 TEMP              0 ****  ****    0 ROOT
