@<TRIPOS>MOLECULE
molecule
   15    14     1     0     0
SMALL
bcc


@<TRIPOS>ATOM
      1 OAB          0.0000     0.0000     0.0000 o          1 6UN      -0.817800
      2 CAA          1.2140     0.0000     0.0000 c          1 6UN       0.808600
      3 OAD          1.8870     0.0000     1.1650 o          1 6UN      -0.817800
      4 CAC          1.9590    -0.0090    -1.2890 c          1 6UN       0.453300
      5 OAJ          3.1770    -0.0090    -1.2890 o          1 6UN      -0.551100
      6 CAE          1.2580    -0.0150    -2.5040 ce         1 6UN      -0.195200
      7 CAF          1.9480    -0.0230    -3.6970 ce         1 6UN      -0.128000
      8 CAG          1.2470    -0.0300    -4.9130 ce         1 6UN      -0.168000
      9 CAH          1.9240    -0.0370    -6.0860 c2         1 6UN      -0.022900
     10 OAI          1.2520    -0.0440    -7.2520 oh         1 6UN      -0.504100
     11 H2           0.1750    -0.0130    -2.5040 ha         1 6UN       0.148000
     12 H3           3.0310    -0.0250    -3.6970 ha         1 6UN       0.135000
     13 H4           0.1630    -0.0300    -4.9130 ha         1 6UN       0.138000
     14 H5           3.0080    -0.0380    -6.0850 h4         1 6UN       0.117000
     15 H6           1.8640    -0.0190    -7.9680 ho         1 6UN       0.405000
@<TRIPOS>BOND
     1    10     9 1   
     2     9     8 2   
     3     8     7 1   
     4     7     6 2   
     5     6     4 1   
     6     5     4 2   
     7     4     2 1   
     8     2     1 1   
     9     2     3 1   
    10     6    11 1   
    11     7    12 1   
    12     8    13 1   
    13     9    14 1   
    14    10    15 1   
@<TRIPOS>SUBSTRUCTURE
     1 6UN         1 TEMP              0 ****  ****    0 ROOT
