@<TRIPOS>MOLECULE
6UO
   54    56     1     0     0
SMALL
bcc


@<TRIPOS>ATOM
      1 C11          0.0000     0.0000     0.0000 c3         1 6UO       0.220400
      2 C14          3.3500    -1.3990     0.6550 c          1 6UO       0.728700
      3 C17          5.7790    -3.9890     1.8670 ca         1 6UO      -0.240300
      4 C18          4.8810    -4.9420     2.3130 ca         1 6UO       0.435200
      5 C15          3.9140    -2.6350     1.2320 ca         1 6UO      -0.272900
      6 C16          5.3010    -2.8130     1.3170 ca         1 6UO      -0.001000
      7 C20          3.0760    -3.6470     1.7040 ca         1 6UO       0.452200
      8 C24         -5.0370     2.3900    -0.4090 ca         1 6UO      -0.080300
      9 C23         -4.7770     1.4640     0.7510 c3         1 6UO       0.040700
     10 C26         -4.5190     3.1330    -2.6260 ca         1 6UO      -0.099000
     11 C27         -5.5150     4.0870    -2.5380 ca         1 6UO      -0.098000
     12 C28         -6.2630     4.2010    -1.3820 ca         1 6UO      -0.099000
     13 C29         -6.0290     3.3490    -0.3200 ca         1 6UO      -0.086500
     14 C12          1.5300     0.0000     0.0000 c3         1 6UO       0.219400
     15 C04         -4.1490     1.2000     4.3030 c3         1 6UO       0.241800
     16 C05         -4.8540    -0.1380     4.5440 c3         1 6UO      -0.049400
     17 C06         -3.8180    -1.2630     4.5520 c3         1 6UO      -0.018400
     18 C07         -3.1180    -1.3240     3.1920 c3         1 6UO      -0.039400
     19 C08         -2.3920     0.0000     2.9360 c3         1 6UO       0.170500
     20 C09         -1.8150    -0.0000     1.5440 c          1 6UO       0.736100
     21 C25         -4.2810     2.2840    -1.5610 ca         1 6UO      -0.086500
     22 N03         -3.3560     1.1010     3.0700 n3         1 6UO      -0.537500
     23 N19          3.5790    -4.7480     2.2200 nb         1 6UO      -0.597000
     24 O01         -2.2730     2.2560     1.2220 o          1 6UO      -0.586800
     25 O10         -0.4840     0.0000     1.3690 os         1 6UO      -0.386900
     26 O13          2.0140    -1.2390     0.5800 os         1 6UO      -0.411900
     27 O21          4.0890    -0.5260     0.2480 o          1 6UO      -0.586000
     28 O22         -2.5510    -0.0010     0.5860 o          1 6UO      -0.624000
     29 O30         -4.0830     3.3530     2.5030 o          1 6UO      -0.586800
     30 S02         -3.5450     2.2090     1.8550 s6         1 6UO       0.972900
     31 H1          -0.3610     0.8850    -0.5110 h1         1 6UO       0.026200
     32 H2          -0.3610    -0.8850    -0.5110 h1         1 6UO       0.026200
     33 H3           6.8460    -4.1620     1.9490 ha         1 6UO       0.119000
     34 H4           5.2530    -5.8640     2.7440 h4         1 6UO      -0.019900
     35 H5           5.9820    -2.0500     0.9600 ha         1 6UO       0.130000
     36 H6           2.0010    -3.5250     1.6460 h4         1 6UO      -0.007900
     37 H7          -5.6990     1.3010     1.2970 h1         1 6UO       0.089700
     38 H8          -4.4040     0.5170     0.3810 h1         1 6UO       0.089700
     39 H9          -3.9300     3.0460    -3.5300 ha         1 6UO       0.103000
     40 H10         -5.7000     4.7540    -3.3720 ha         1 6UO       0.101000
     41 H11         -7.0420     4.9510    -1.3130 ha         1 6UO       0.103000
     42 H12         -6.6160     3.4390     0.5870 ha         1 6UO       0.115500
     43 H13          1.8910     0.0880    -1.0180 h1         1 6UO       0.023200
     44 H14          1.8910     0.8370     0.5850 h1         1 6UO       0.023200
     45 H15         -4.8880     1.9850     4.1970 h1         1 6UO       0.029700
     46 H16         -3.4940     1.4190     5.1380 h1         1 6UO       0.029700
     47 H17         -5.3630    -0.1100     5.5000 hc         1 6UO       0.019700
     48 H18         -5.5710    -0.3150     3.7510 hc         1 6UO       0.019700
     49 H19         -4.3140    -2.2070     4.7440 hc         1 6UO       0.018200
     50 H20         -3.0840    -1.0710     5.3260 hc         1 6UO       0.018200
     51 H21         -2.3990    -2.1350     3.1930 hc         1 6UO       0.027200
     52 H22         -3.8550    -1.4870     2.4150 hc         1 6UO       0.027200
     53 H23         -1.5980     0.1240     3.6640 h1         1 6UO       0.042700
     54 H24         -3.5000     1.5360    -1.6300 ha         1 6UO       0.115500
@<TRIPOS>BOND
     1     1    14 1   
     2     1    25 1   
     3     1    31 1   
     4     1    32 1   
     5     2     5 1   
     6     2    26 1   
     7     2    27 2   
     8     3     4 ar  
     9     3     6 ar  
    10     3    33 1   
    11     4    23 ar  
    12     4    34 1   
    13     5     6 ar  
    14     5     7 ar  
    15     6    35 1   
    16     7    23 ar  
    17     7    36 1   
    18     8     9 1   
    19     8    13 ar  
    20     8    21 ar  
    21     9    30 1   
    22     9    37 1   
    23     9    38 1   
    24    10    11 ar  
    25    10    21 ar  
    26    10    39 1   
    27    11    12 ar  
    28    11    40 1   
    29    12    13 ar  
    30    12    41 1   
    31    13    42 1   
    32    14    26 1   
    33    14    43 1   
    34    14    44 1   
    35    15    16 1   
    36    15    22 1   
    37    15    45 1   
    38    15    46 1   
    39    16    17 1   
    40    16    47 1   
    41    16    48 1   
    42    17    18 1   
    43    17    49 1   
    44    17    50 1   
    45    18    19 1   
    46    18    51 1   
    47    18    52 1   
    48    19    20 1   
    49    19    22 1   
    50    19    53 1   
    51    20    25 1   
    52    20    28 2   
    53    21    54 1   
    54    22    30 1   
    55    24    30 2   
    56    29    30 2   
@<TRIPOS>SUBSTRUCTURE
     1 6UO         1 TEMP              0 ****  ****    0 ROOT
