@<TRIPOS>MOLECULE
6UP
   26    27     1     0     0
SMALL
bcc


@<TRIPOS>ATOM
      1 CAI          0.0000     0.0000     0.0000 ca         1 6UP       0.004000
      2 CAN          1.4010     0.0000     0.0000 ca         1 6UP      -0.057000
      3 CAL          2.1300     0.0000     1.2090 ca         1 6UP       0.053600
      4 N1           1.4640    -0.0020     2.4310 nv         1 6UP      -0.560200
      5 CAE          3.5090     0.0000     1.1680 ca         1 6UP      -0.085000
      6 CAD          4.1830     0.0020    -0.0480 ca         1 6UP      -0.046000
      7 CAG          3.5050     0.0020    -1.2290 ca         1 6UP      -0.094000
      8 CAM          2.1010     0.0010    -1.2330 ca         1 6UP      -0.007000
      9 CAH          1.3800     0.0010    -2.4420 ca         1 6UP      -0.024000
     10 CAF          0.0220     0.0000    -2.4230 ca         1 6UP      -0.134000
     11 CAK         -0.6810    -0.0050    -1.2060 ca         1 6UP      -0.246900
     12 CAJ         -2.1610    -0.0060    -1.2130 ce         1 6UP       0.222800
     13 N2          -2.8440    -0.0030    -2.4100 nz         1 6UP       0.189400
     14 N3          -2.8180    -0.0110    -0.0880 n2         1 6UP      -0.512100
     15 H1          -0.5460    -0.0040     0.9360 ha         1 6UP       0.114000
     16 H2           1.2440    -0.8690     2.8800 hn         1 6UP       0.284800
     17 H3           1.2420     0.8640     2.8810 hn         1 6UP       0.284800
     18 H4           4.0730     0.0000     2.0930 ha         1 6UP       0.125000
     19 H5           5.2670     0.0020    -0.0560 ha         1 6UP       0.118000
     20 H6           4.0490     0.0040    -2.1660 ha         1 6UP       0.121000
     21 H7           1.9080     0.0050    -3.3870 ha         1 6UP       0.123000
     22 H8          -0.5260    -0.0040    -3.3570 ha         1 6UP       0.081000
     23 H9          -2.6000     0.8150    -2.9320 hn         1 6UP       0.220800
     24 H10         -3.8290    -0.0030    -2.2320 hn         1 6UP       0.220800
     25 H11         -2.3240    -0.0140     0.7820 hn         1 6UP       0.380400
     26 H23         -2.6010    -0.8190    -2.9360 hn         1 6UP       0.220800
@<TRIPOS>BOND
     1     1     2 ar  
     2     1    11 ar  
     3     1    15 1   
     4     2     3 ar  
     5     2     8 ar  
     6     3     4 1   
     7     3     5 ar  
     8     4    16 1   
     9     4    17 1   
    10     5     6 ar  
    11     5    18 1   
    12     6     7 ar  
    13     6    19 1   
    14     7     8 ar  
    15     7    20 1   
    16     8     9 ar  
    17     9    10 ar  
    18     9    21 1   
    19    10    11 ar  
    20    10    22 1   
    21    11    12 1   
    22    12    13 1   
    23    12    14 2   
    24    13    23 1   
    25    13    24 1   
    26    13    26 1   
    27    14    25 1   
@<TRIPOS>SUBSTRUCTURE
     1 6UP         1 TEMP              0 ****  ****    0 ROOT
