@<TRIPOS>MOLECULE
molecule
   26    27     1     0     0
SMALL
bcc


@<TRIPOS>ATOM
      1 CAI          0.0000     0.0000     0.0000 ca         1 6UP       0.022000
      2 CAN          1.4010     0.0000     0.0000 ca         1 6UP      -0.079000
      3 CAL          2.1300     0.0000     1.2090 ca         1 6UP       0.199600
      4 N1           1.4640    -0.0020     2.4310 nv         1 6UP      -0.990200
      5 CAE          3.5090     0.0000     1.1680 ca         1 6UP      -0.128000
      6 CAD          4.1830     0.0020    -0.0480 ca         1 6UP      -0.075000
      7 CAG          3.5050     0.0020    -1.2290 ca         1 6UP      -0.132000
      8 CAM          2.1010     0.0010    -1.2330 ca         1 6UP      -0.004000
      9 CAH          1.3800     0.0010    -2.4420 ca         1 6UP      -0.074000
     10 CAF          0.0220     0.0000    -2.4230 ca         1 6UP      -0.157000
     11 CAK         -0.6810    -0.0050    -1.2060 ca         1 6UP      -0.223900
     12 CAJ         -2.1610    -0.0060    -1.2130 ce         1 6UP       0.551800
     13 N2          -2.8440    -0.0030    -2.4100 nz         1 6UP      -0.800600
     14 N3          -2.8180    -0.0110    -0.0880 n2         1 6UP      -0.702100
     15 H1          -0.5460    -0.0040     0.9360 ha         1 6UP       0.174000
     16 H2           1.2260    -0.8690     2.8700 hn         1 6UP       0.441800
     17 H3           1.2250     0.8640     2.8720 hn         1 6UP       0.441800
     18 H4           4.0730     0.0000     2.0930 ha         1 6UP       0.158000
     19 H5           5.2670     0.0020    -0.0560 ha         1 6UP       0.152000
     20 H6           4.0490     0.0040    -2.1660 ha         1 6UP       0.149000
     21 H7           1.9080     0.0050    -3.3870 ha         1 6UP       0.155000
     22 H8          -0.5260    -0.0040    -3.3570 ha         1 6UP       0.099000
     23 H9          -2.6000     0.8150    -2.9320 hn         1 6UP       0.463467
     24 H10         -3.8290    -0.0030    -2.2320 hn         1 6UP       0.463467
     25 H11         -3.8190    -0.0120    -0.0910 hn         1 6UP       0.428400
     26 H23         -2.6020    -0.8190    -2.9360 hn         1 6UP       0.463467
@<TRIPOS>BOND
     1     9    10 ar
     2     9     8 ar
     3     7     8 ar
     4     7     6 ar
     5    10    11 ar
     6     8     2 ar
     7     6     5 ar
     8    11    12 1
     9    11     1 ar
    10    14    12 2
    11     2     1 ar
    12     2     3 ar
    13    12    13 1
    14     5     3 ar
    15     3     4 1
    16     1    15 1
    17     4    16 1
    18     4    17 1
    19     5    18 1
    20     6    19 1
    21     7    20 1
    22     9    21 1
    23    10    22 1
    24    13    23 1
    25    13    24 1
    26    14    25 1
    27    26    13 1
@<TRIPOS>SUBSTRUCTURE
     1 6UP         1 TEMP              0 ****  ****    0 ROOT
