@<TRIPOS>MOLECULE
6UR
   57    61     1     0     0
SMALL
bcc


@<TRIPOS>ATOM
      1 C1           0.0000     0.0000     0.0000 c3         1 6UR       0.209800
      2 C2          -1.4530   -11.2680    -1.8490 ca         1 6UR       0.613900
      3 C3           1.5290     0.0000     0.0000 c3         1 6UR       0.040800
      4 C4          -1.8700    -9.0340    -2.1890 ca         1 6UR       0.222800
      5 C5          -3.0700    -9.3680    -2.8400 ca         1 6UR      -0.180200
      6 C6          -3.4080   -10.7270    -2.9490 ca         1 6UR       0.583200
      7 C7           2.0320     0.0000     1.4210 cc         1 6UR      -0.107400
      8 N1          -2.5740   -11.6310    -2.4470 nb         1 6UR      -0.668000
      9 N3          -1.1000   -10.0080    -1.7140 nb         1 6UR      -0.594000
     10 C8          -2.9060    -7.2060    -2.8560 cc         1 6UR       0.294700
     11 C1'         -0.7170    -6.8450    -1.6550 c3         1 6UR       0.141800
     12 C2'          0.4470    -6.7060    -2.6700 c3         1 6UR       0.114100
     13 C3'          1.1150    -5.3850    -2.2170 c3         1 6UR       0.125100
     14 C4'          0.0180    -4.6620    -1.4130 c3         1 6UR       0.152100
     15 C5'         -0.2740    -3.2970    -2.0400 c3         1 6UR       0.278400
     16 O3P         -2.2060    -1.0830    -2.9860 o          1 6UR      -0.630000
     17 P           -1.7390    -1.1110    -1.5820 p5         1 6UR       0.741700
     18 N1P         -0.4900     0.0000    -1.3840 n7         1 6UR      -0.630300
     19 O2P         -2.9580    -0.7280    -0.6030 o          1 6UR      -0.630000
     20 O5'         -1.2060    -2.5870    -1.2220 os         1 6UR      -0.450200
     21 O3'          2.2470    -5.6560    -1.3870 oh         1 6UR      -0.559800
     22 O2'          1.3560    -7.8030    -2.5560 oh         1 6UR      -0.549800
     23 O4'         -1.1610    -5.4850    -1.4630 os         1 6UR      -0.366600
     24 N9          -1.7950    -7.6650    -2.2150 na         1 6UR       0.215000
     25 N7          -3.6530    -8.2070    -3.2220 nd         1 6UR      -0.517100
     26 C9           2.2260    -1.1730     2.2760 ca         1 6UR      -0.096800
     27 C10          2.7080    -0.6830     3.5050 ca         1 6UR      -0.228200
     28 N11          2.7940     0.6860     3.3890 na         1 6UR       0.339600
     29 C12          2.3930     1.0740     2.1400 cd         1 6UR      -0.293100
     30 C13          2.0350    -2.5450     2.1010 ca         1 6UR      -0.023000
     31 C14          2.3170    -3.4060     3.1230 ca         1 6UR      -0.147000
     32 C15          2.7920    -2.9280     4.3360 ca         1 6UR      -0.090000
     33 C16          2.9880    -1.5780     4.5320 ca         1 6UR      -0.121000
     34 H1          -0.3610     0.8840     0.5110 h1         1 6UR       0.007700
     35 H2          -0.3610    -0.8850     0.5110 h1         1 6UR       0.007700
     36 H4           1.8900     0.8840    -0.5110 hc         1 6UR       0.007700
     37 H5           1.8900    -0.8850    -0.5110 hc         1 6UR       0.007700
     38 H6          -3.1350    -6.1620    -3.0350 h5         1 6UR       0.059800
     39 H7          -0.3590    -7.2620    -0.7220 h2         1 6UR       0.064700
     40 H8           0.0650    -6.6150    -3.6790 h1         1 6UR       0.020700
     41 H9           1.4020    -4.7940    -3.0780 h1         1 6UR       0.016700
     42 H10          0.3370    -4.5400    -0.3840 h1         1 6UR       0.044700
     43 H11          0.6460    -2.7300    -2.1150 h1         1 6UR      -0.013800
     44 H12         -0.6930    -3.4370    -3.0290 h1         1 6UR      -0.013800
     45 H13         -0.4840     0.8470    -1.9170 hn         1 6UR       0.295800
     46 H15          3.0380    -5.4850    -1.8700 ho         1 6UR       0.383000
     47 H16          1.7470    -7.9760    -3.3970 ho         1 6UR       0.381000
     48 H17         -4.5830   -11.3040    -4.5590 hn         1 6UR       0.276300
     49 H18         -5.4260   -11.1950    -3.0480 hn         1 6UR       0.276300
     50 H19          3.1100     1.3040     4.1100 hn         1 6UR       0.103700
     51 H20          2.3710     2.0970     1.7840 h4         1 6UR       0.138000
     52 H21          1.6650    -2.9250     1.1560 ha         1 6UR       0.114000
     53 H22          2.1690    -4.4700     2.9860 ha         1 6UR       0.102000
     54 H23          3.0120    -3.6230     5.1380 ha         1 6UR       0.090000
     55 H24          3.3590    -1.2150     5.4830 ha         1 6UR       0.089000
     56 N6          -4.5790   -11.1170    -3.5760 nv         1 6UR      -0.644500
     57 H3          -0.8010   -12.0370    -1.4530 h5         1 6UR      -0.007900
@<TRIPOS>BOND
     1     1     3 1   
     2     1    18 1   
     3     1    34 1   
     4     1    35 1   
     5     2     8 ar  
     6     2     9 ar  
     7     2    57 1   
     8     3     7 1   
     9     3    36 1   
    10     3    37 1   
    11     4     5 ar  
    12     4     9 ar  
    13     4    24 1   
    14     5     6 ar  
    15     5    25 1   
    16     6     8 ar  
    17     6    56 1   
    18     7    26 1   
    19     7    29 2   
    20    10    24 1   
    21    10    25 2   
    22    10    38 1   
    23    11    12 1   
    24    11    23 1   
    25    11    24 1   
    26    11    39 1   
    27    12    13 1   
    28    12    22 1   
    29    12    40 1   
    30    13    14 1   
    31    13    21 1   
    32    13    41 1   
    33    14    15 1   
    34    14    23 1   
    35    14    42 1   
    36    15    20 1   
    37    15    43 1   
    38    15    44 1   
    39    16    17 1   
    40    17    18 1   
    41    17    19 1   
    42    17    20 1   
    43    18    45 1   
    44    21    46 1   
    45    22    47 1   
    46    26    27 ar  
    47    26    30 ar  
    48    27    28 1   
    49    27    33 ar  
    50    28    29 1   
    51    28    50 1   
    52    29    51 1   
    53    30    31 ar  
    54    30    52 1   
    55    31    32 ar  
    56    31    53 1   
    57    32    33 ar  
    58    32    54 1   
    59    33    55 1   
    60    48    56 1   
    61    49    56 1   
@<TRIPOS>SUBSTRUCTURE
     1 6UR         1 TEMP              0 ****  ****    0 ROOT
