@<TRIPOS>MOLECULE
6US
   57    61     1     0     0
SMALL
bcc


@<TRIPOS>ATOM
      1 C1           0.0000     0.0000     0.0000 c3         1 6US       0.208800
      2 C5          -4.5700    -3.4960    -5.1830 ca         1 6US      -0.172200
      3 C6          -4.9770    -4.0220    -6.4210 ca         1 6US       0.585200
      4 C7           2.0320    -0.0000    -1.4200 cc         1 6US      -0.105400
      5 C8          -3.6040    -2.9060    -3.3340 cc         1 6US       0.312700
      6 C16          2.0440     2.5450    -2.0980 ca         1 6US      -0.016000
      7 C2          -6.9580    -2.8520    -6.2300 ca         1 6US       0.618900
      8 C3           1.5300     0.0000     0.0000 c3         1 6US       0.039800
      9 C12          2.2310     1.1730    -2.2740 ca         1 6US      -0.095800
     10 C14          2.8090     2.9290    -4.3310 ca         1 6US      -0.091000
     11 P           -1.7380     1.1110     1.5830 p5         1 6US       0.745700
     12 N1P         -0.4900     0.0000     1.3850 n7         1 6US      -0.635300
     13 O2P         -2.2050     1.0830     2.9880 o          1 6US      -0.635500
     14 O5'         -2.9580     0.7290     0.6040 os         1 6US      -0.455200
     15 C5'         -3.8450    -0.3640     0.8570 c3         1 6US       0.287400
     16 C4'         -4.8830    -0.4460    -0.2640 c3         1 6US       0.157100
     17 C3'         -5.9280    -1.5390     0.0500 c3         1 6US       0.119100
     18 O3'         -7.1090    -0.9580     0.6080 oh         1 6US      -0.574800
     19 C2'         -6.2350    -2.1730    -1.3250 c3         1 6US       0.109100
     20 O2'         -5.8860    -3.5580    -1.3270 oh         1 6US      -0.576800
     21 C1'         -5.3390    -1.3860    -2.3070 c3         1 6US       0.148800
     22 O4'         -4.2620    -0.8730    -1.4950 os         1 6US      -0.372600
     23 N9          -4.8150    -2.2790    -3.3450 na         1 6US       0.237000
     24 C4          -5.4500    -2.6320    -4.5090 ca         1 6US       0.217800
     25 N7          -3.4650    -3.6230    -4.4110 nd         1 6US      -0.524100
     26 N3          -6.6220    -2.3410    -5.0640 nb         1 6US      -0.616000
     27 N1          -6.1670    -3.6730    -6.8980 nb         1 6US      -0.672000
     28 C9           2.3860    -1.0750    -2.1420 cd         1 6US      -0.296100
     29 N10          2.7930    -0.6870    -3.3900 na         1 6US       0.337600
     30 C11          2.7150     0.6830    -3.5020 ca         1 6US      -0.228200
     31 C13          3.0000     1.5780    -4.5270 ca         1 6US      -0.126000
     32 C15          2.3320     3.4060    -3.1190 ca         1 6US      -0.151000
     33 H1          -0.3610     0.8840    -0.5110 h1         1 6US       0.005700
     34 H2          -0.3610    -0.8850    -0.5110 h1         1 6US       0.005700
     35 H4           1.6720     2.9260    -1.1540 ha         1 6US       0.129000
     36 H5          -7.9200    -2.5930    -6.6550 h5         1 6US      -0.007900
     37 H6           1.8910    -0.8840     0.5110 hc         1 6US       0.013200
     38 H7           1.8910     0.8850     0.5110 hc         1 6US       0.013200
     39 H8           3.0320     3.6240    -5.1310 ha         1 6US       0.088000
     40 H10          0.1420    -0.1830     2.1400 hn         1 6US       0.300800
     41 H11         -3.2800    -1.2870     0.8940 h1         1 6US      -0.009800
     42 H12         -4.3480    -0.2090     1.8040 h1         1 6US      -0.009800
     43 H13         -5.3730     0.5100    -0.4030 h1         1 6US       0.044700
     44 H14         -5.5080    -2.2800     0.7210 h1         1 6US       0.033700
     45 H15         -7.4060    -1.4840     1.3320 ho         1 6US       0.388000
     46 H16         -7.2800    -2.0380    -1.5770 h1         1 6US       0.030700
     47 H17         -6.6430    -4.0740    -1.1040 ho         1 6US       0.392000
     48 H18         -5.8950    -0.5700    -2.7510 h2         1 6US       0.051700
     49 H19         -4.2290    -5.8710    -6.9910 hn         1 6US       0.275800
     50 H20         -3.5090    -4.5180    -7.8010 hn         1 6US       0.275800
     51 H21          2.3550    -2.0990    -1.7890 h4         1 6US       0.137000
     52 H22          3.1060    -1.3060    -4.1120 hn         1 6US       0.103700
     53 H23          3.3730     1.2150    -5.4770 ha         1 6US       0.088000
     54 H24          2.1860     4.4710    -2.9810 ha         1 6US       0.100000
     55 N6          -4.1560    -4.8820    -7.1290 nv         1 6US      -0.644500
     56 O3P         -1.2050     2.5870     1.2250 o          1 6US      -0.635500
     57 H3          -2.8670    -2.8190    -2.5460 h5         1 6US       0.051800
@<TRIPOS>BOND
     1     1     8 1   
     2     1    12 1   
     3     1    33 1   
     4     1    34 1   
     5     2     3 ar  
     6     2    24 ar  
     7     2    25 1   
     8     3    27 ar  
     9     3    55 1   
    10     4     8 1   
    11     4     9 1   
    12     4    28 2   
    13     5    23 1   
    14     5    25 2   
    15     5    57 1   
    16     6     9 ar  
    17     6    32 ar  
    18     6    35 1   
    19     7    26 ar  
    20     7    27 ar  
    21     7    36 1   
    22     8    37 1   
    23     8    38 1   
    24     9    30 ar  
    25    10    31 ar  
    26    10    32 ar  
    27    10    39 1   
    28    11    12 1   
    29    11    13 1   
    30    11    14 1   
    31    11    56 1   
    32    12    40 1   
    33    14    15 1   
    34    15    16 1   
    35    15    41 1   
    36    15    42 1   
    37    16    17 1   
    38    16    22 1   
    39    16    43 1   
    40    17    18 1   
    41    17    19 1   
    42    17    44 1   
    43    18    45 1   
    44    19    20 1   
    45    19    21 1   
    46    19    46 1   
    47    20    47 1   
    48    21    22 1   
    49    21    23 1   
    50    21    48 1   
    51    23    24 1   
    52    24    26 ar  
    53    28    29 1   
    54    28    51 1   
    55    29    30 1   
    56    29    52 1   
    57    30    31 ar  
    58    31    53 1   
    59    32    54 1   
    60    49    55 1   
    61    50    55 1   
@<TRIPOS>SUBSTRUCTURE
     1 6US         1 TEMP              0 ****  ****    0 ROOT
