@<TRIPOS>MOLECULE
molecule
   57    61     1     0     0
SMALL
bcc


@<TRIPOS>ATOM
      1 C1           0.0000     0.0000     0.0000 c3         1 6US       0.214800
      2 C5          -4.5700    -3.4960    -5.1830 ca         1 6US      -0.144200
      3 C6          -4.9770    -4.0220    -6.4210 ca         1 6US       0.761200
      4 C7           2.0320    -0.0000    -1.4200 cc         1 6US      -0.123400
      5 C8          -3.6040    -2.9060    -3.3340 cc         1 6US       0.487700
      6 C16          2.0440     2.5450    -2.0980 ca         1 6US      -0.055000
      7 C2          -6.9580    -2.8520    -6.2300 ca         1 6US       0.685900
      8 C3           1.5300     0.0000     0.0000 c3         1 6US      -0.024200
      9 C12          2.2310     1.1730    -2.2740 ca         1 6US      -0.096800
     10 C14          2.8090     2.9290    -4.3310 ca         1 6US      -0.113000
     11 P           -1.7380     1.1110     1.5830 p5         1 6US       1.286700
     12 N1P         -0.4900     0.0000     1.3850 n7         1 6US      -0.946300
     13 O2P         -2.2050     1.0830     2.9880 o          1 6US      -0.811000
     14 O5'         -2.9580     0.7290     0.6040 os         1 6US      -0.566200
     15 C5'         -3.8450    -0.3640     0.8570 c3         1 6US       0.220400
     16 C4'         -4.8830    -0.4460    -0.2640 c3         1 6US       0.133100
     17 C3'         -5.9280    -1.5390     0.0500 c3         1 6US       0.078100
     18 O3'         -7.1090    -0.9580     0.6080 oh         1 6US      -0.595800
     19 C2'         -6.2350    -2.1730    -1.3250 c3         1 6US       0.073100
     20 O2'         -5.8860    -3.5580    -1.3270 oh         1 6US      -0.589800
     21 C1'         -5.3390    -1.3860    -2.3070 c3         1 6US       0.261800
     22 O4'         -4.2620    -0.8730    -1.4950 os         1 6US      -0.388600
     23 N9          -4.8150    -2.2790    -3.3450 na         1 6US      -0.235000
     24 C4          -5.4500    -2.6320    -4.5090 ca         1 6US       0.439800
     25 N7          -3.4650    -3.6230    -4.4110 nd         1 6US      -0.606100
     26 N3          -6.6220    -2.3410    -5.0640 nb         1 6US      -0.755000
     27 N1          -6.1670    -3.6730    -6.8980 nb         1 6US      -0.782000
     28 C9           2.3860    -1.0750    -2.1420 cd         1 6US      -0.123100
     29 N10          2.7930    -0.6870    -3.3900 na         1 6US      -0.192400
     30 C11          2.7150     0.6830    -3.5020 ca         1 6US      -0.042200
     31 C13          3.0000     1.5780    -4.5270 ca         1 6US      -0.162000
     32 C15          2.3320     3.4060    -3.1190 ca         1 6US      -0.170000
     33 H1          -0.3610     0.8840    -0.5110 h1         1 6US       0.038200
     34 H2          -0.3610    -0.8850    -0.5110 h1         1 6US       0.038200
     35 H4           1.6720     2.9260    -1.1540 ha         1 6US       0.161000
     36 H5          -7.9200    -2.5930    -6.6550 h5         1 6US       0.053100
     37 H6           1.8910    -0.8840     0.5110 hc         1 6US       0.047200
     38 H7           1.8910     0.8850     0.5110 hc         1 6US       0.047200
     39 H8           3.0320     3.6240    -5.1310 ha         1 6US       0.116000
     40 H10          0.1420    -0.1830     2.1400 hn         1 6US       0.409800
     41 H11         -3.2800    -1.2870     0.8940 h1         1 6US       0.037200
     42 H12         -4.3480    -0.2090     1.8040 h1         1 6US       0.037200
     43 H13         -5.3730     0.5100    -0.4030 h1         1 6US       0.085700
     44 H14         -5.5080    -2.2800     0.7210 h1         1 6US       0.066700
     45 H15         -7.4060    -1.4840     1.3320 ho         1 6US       0.404000
     46 H16         -7.2800    -2.0380    -1.5770 h1         1 6US       0.066700
     47 H17         -6.6430    -4.0740    -1.1040 ho         1 6US       0.403000
     48 H18         -5.8950    -0.5700    -2.7510 h2         1 6US       0.093700
     49 H19         -4.2290    -5.8710    -6.9910 hn         1 6US       0.438800
     50 H20         -3.5090    -4.5180    -7.8010 hn         1 6US       0.438800
     51 H21          2.3550    -2.0990    -1.7890 h4         1 6US       0.160000
     52 H22          3.1060    -1.3060    -4.1120 hn         1 6US       0.284700
     53 H23          3.3730     1.2150    -5.4770 ha         1 6US       0.111000
     54 H24          2.1860     4.4710    -2.9810 ha         1 6US       0.126000
     55 N6          -4.1560    -4.8820    -7.1290 nv         1 6US      -1.073500
     56 O3P         -1.2050     2.5870     1.2250 o          1 6US      -0.811000
     57 H3          -2.8670    -2.8190    -2.5460 h5         1 6US       0.101800
@<TRIPOS>BOND
     1    32    10 ar  
     2    32     6 ar  
     3    10    31 ar  
     4     6     9 ar  
     5    13    11 1   
     6    31    30 ar  
     7     9    30 ar  
     8     9     4 1   
     9     1     8 1   
    10     1    12 1   
    11    30    29 1   
    12     8     4 1   
    13    11    12 1   
    14    11    14 1   
    15    11    56 1   
    16     4    28 2   
    17    14    15 1   
    18    29    28 1   
    19    18    17 1   
    20    15    16 1   
    21    16    17 1   
    22    16    22 1   
    23    17    19 1   
    24    22    21 1   
    25    19    21 1   
    26    19    20 1   
    27    21    23 1   
    28    26    24 ar  
    29    26     7 ar  
    30    23    24 1   
    31    23     5 1   
    32    24     2 ar  
    33     7    27 ar  
    34     5    25 2   
    35     2    25 1   
    36     2     3 ar  
    37    27     3 ar  
    38     3    55 1   
    39     1    33 1   
    40     1    34 1   
    41     5    57 1   
    42     6    35 1   
    43     7    36 1   
    44     8    37 1   
    45     8    38 1   
    46    10    39 1   
    47    12    40 1   
    48    15    41 1   
    49    15    42 1   
    50    16    43 1   
    51    17    44 1   
    52    18    45 1   
    53    19    46 1   
    54    20    47 1   
    55    21    48 1   
    56    55    49 1   
    57    55    50 1   
    58    28    51 1   
    59    29    52 1   
    60    31    53 1   
    61    32    54 1   
@<TRIPOS>SUBSTRUCTURE
     1 6US         1 TEMP              0 ****  ****    0 ROOT
