@<TRIPOS>MOLECULE
molecule
   66    70     1     0     0
SMALL
bcc


@<TRIPOS>ATOM
      1 O3           0.0000     0.0000     0.0000 o          1 6UT      -0.770000
      2 N3           4.2710    -3.1440     7.8990 nc         1 6UT      -0.550100
      3 O2           2.1030    -1.2080    -0.6980 o          1 6UT      -0.770000
      4 C2           4.3910    -3.9340     8.9430 cd         1 6UT       0.420800
      5 C1           1.7000     2.5960    -0.1270 c3         1 6UT       0.158500
      6 N2           4.9430    -3.4360    10.0960 nz         1 6UT      -0.803600
      7 C5           3.3010    -4.9140     6.6600 cc         1 6UT       0.316800
      8 N1           3.9840    -5.2350     8.9130 ns         1 6UT      -0.469400
      9 C4           3.7390    -3.5880     6.7540 cc         1 6UT       0.009800
     10 N4           2.1710     1.3740    -0.7930 n7         1 6UT      -0.884300
     11 C3           2.7800     3.6760    -0.2210 c3         1 6UT      -0.022200
     12 C17          0.4430     3.0830    -0.8010 c          1 6UT       0.646100
     13 N18         -0.1720     4.1960    -0.3560 ns         1 6UT      -0.611900
     14 C7           3.9950     3.2400     0.5570 cd         1 6UT      -0.127400
     15 C12          4.2830     3.5570     1.8290 cc         1 6UT      -0.130100
     16 N11          5.4680     2.9800     2.1960 na         1 6UT      -0.203400
     17 C10          5.9840     2.2600     1.1420 ca         1 6UT      -0.050200
     18 C16          7.1360     1.4980     0.9750 ca         1 6UT      -0.152000
     19 C15          7.3800     0.8820    -0.2320 ca         1 6UT      -0.101000
     20 C14          6.4880     1.0150    -1.2880 ca         1 6UT      -0.149000
     21 C13          5.3510     1.7590    -1.1470 ca         1 6UT      -0.069000
     22 C9           5.0810     2.3870     0.0710 ca         1 6UT      -0.105800
     23 P1           1.6100     0.0000     0.0000 p5         1 6UT       1.239700
     24 O5'          2.1470     0.0000     1.5180 os         1 6UT      -0.579200
     25 C5'          3.5180    -0.2080     1.8590 c3         1 6UT       0.231400
     26 C4'          3.6810    -0.1460     3.3780 c3         1 6UT       0.103100
     27 O4'          3.0060    -1.2580     3.9880 os         1 6UT      -0.352600
     28 C3'          5.1740    -0.2510     3.7500 c3         1 6UT      -0.371900
     29 O3'          5.5970     0.9150     4.4590 oh         1 6UT      -0.632800
     30 C2'          5.2500    -1.4980     4.6640 c3         1 6UT       0.084100
     31 O2'          6.1320    -1.2710     5.7650 oh         1 6UT      -0.565800
     32 C1'          3.7790    -1.6370     5.1480 c3         1 6UT       0.168800
     33 N9           3.4900    -3.0190     5.5340 na         1 6UT      -0.155900
     34 C8           2.9240    -3.9770     4.7440 cd         1 6UT       0.553400
     35 N7           2.8140    -5.0890     5.4080 nc         1 6UT      -0.616000
     36 C6           3.4370    -5.7530     7.7910 c          1 6UT       0.619000
     37 O6           3.0690    -6.9150     7.7550 o          1 6UT      -0.534500
     38 C11         -1.3940     4.6700    -1.0120 c3         1 6UT       0.108300
     39 H2           1.4910     2.3820     0.9140 h1         1 6UT       0.048700
     40 H3           4.5740    -2.6630     9.5770 hn         1 6UT       0.501800
     41 H4           4.4670    -3.6630    10.9460 hn         1 6UT       0.501800
     42 H5           4.0900    -5.8090     9.7260 hn         1 6UT       0.348500
     43 H6           3.0650     1.3630    -1.2430 hn         1 6UT       0.404800
     44 H7           2.4000     4.6030     0.1920 hc         1 6UT       0.052700
     45 H8           3.0510     3.8270    -1.2590 hc         1 6UT       0.052700
     46 H9           0.1860     4.6790     0.4440 hn         1 6UT       0.291500
     47 H10          3.6700     4.1790     2.4690 h4         1 6UT       0.162000
     48 H11          5.8970     3.0680     3.0960 hn         1 6UT       0.288700
     49 H12          7.8380     1.3880     1.7920 ha         1 6UT       0.116000
     50 H13          8.2770     0.2880    -0.3600 ha         1 6UT       0.127000
     51 H14          6.6950     0.5240    -2.2310 ha         1 6UT       0.137000
     52 H15          4.6600     1.8590    -1.9750 ha         1 6UT       0.152000
     53 H16          4.1260     0.5620     1.3980 h1         1 6UT       0.066200
     54 H17          3.8360    -1.1800     1.5010 h1         1 6UT       0.066200
     55 H18          3.2740     0.7830     3.7590 h1         1 6UT       0.076700
     56 H19          4.3840     0.4540     3.9800 h1         1 6UT       0.415700
     57 H20          6.1310     0.8040     3.6900 ho         1 6UT       0.518000
     58 H21          5.5490    -2.3710     4.0960 h1         1 6UT       0.082700
     59 H22          6.4080    -2.0340     5.2840 ho         1 6UT       0.419000
     60 H23          3.5860    -0.9570     5.9690 h2         1 6UT       0.091700
     61 H24          3.2040    -3.9250     3.6980 h5         1 6UT       0.123100
     62 H25         -1.7530     5.5580    -0.5070 h1         1 6UT       0.033700
     63 H26         -2.1510     3.8970    -0.9660 h1         1 6UT       0.033700
     64 H27         -1.1800     4.9050    -2.0480 h1         1 6UT       0.033700
     65 O19         -0.0160     2.4720    -1.7430 o          1 6UT      -0.527100
     66 H231         5.9410    -3.4830    10.1620 hn         1 6UT       0.501800
@<TRIPOS>BOND
     1    37    36 2   
     2     8    36 1   
     3     8     4 1   
     4    36     7 1   
     5     6     4 1   
     6     4     2 2   
     7     7    35 1   
     8     7     9 2   
     9    35    34 2   
    10     2     9 1   
    11     9    33 1   
    12    34    33 1   
    13    33    32 1   
    14    32    30 1   
    15    32    27 1   
    16    31    30 1   
    17    30    28 1   
    18    27    26 1   
    19    28    26 1   
    20    28    29 1   
    21    26    25 1   
    22    25    24 1   
    23    38    13 1   
    24    65    12 2   
    25    12    13 1   
    26    12     5 1   
    27    24    23 1   
    28     3    23 1   
    29    23    10 1   
    30    23     1 1   
    31    10     5 1   
    32     5    11 1   
    33    15    16 1   
    34    15    14 2   
    35    11    14 1   
    36    16    17 1   
    37    14    22 1   
    38    17    22 ar  
    39    17    18 ar  
    40    22    21 ar  
    41    18    19 ar  
    42    21    20 ar  
    43    19    20 ar  
    44     5    39 1   
    45     6    40 1   
    46     6    41 1   
    47     8    42 1   
    48    10    43 1   
    49    11    44 1   
    50    11    45 1   
    51    13    46 1   
    52    15    47 1   
    53    16    48 1   
    54    18    49 1   
    55    19    50 1   
    56    20    51 1   
    57    21    52 1   
    58    25    53 1   
    59    25    54 1   
    60    26    55 1   
    61    28    56 1   
    62    29    57 1   
    63    30    58 1   
    64    31    59 1   
    65    32    60 1   
    66    34    61 1   
    67    38    62 1   
    68    38    63 1   
    69    38    64 1   
    70    66     6 1   
@<TRIPOS>SUBSTRUCTURE
     1 6UT         1 TEMP              0 ****  ****    0 ROOT
