@<TRIPOS>MOLECULE
6UT
   66    71     1     0     0
SMALL
bcc


@<TRIPOS>ATOM
      1 O3           0.0000     0.0000     0.0000 o          1 6UT      -0.590500
      2 N3           4.2710    -3.1440     7.8990 n2         1 6UT       0.112000
      3 O2           2.1030    -1.2080    -0.6980 o          1 6UT      -0.590500
      4 C2           4.3910    -3.9340     8.9430 c2         1 6UT      -0.469000
      5 C1           1.7000     2.5960    -0.1270 c3         1 6UT      -0.023000
      6 N2           4.9430    -3.4360    10.0960 nz         1 6UT       0.829000
      7 C5           3.3010    -4.9140     6.6600 c2         1 6UT      -0.139000
      8 N1           3.9840    -5.2350     8.9130 ns         1 6UT       0.144000
      9 C4           3.7390    -3.5880     6.7540 c2         1 6UT      -0.298000
     10 N4           2.1710     1.3740    -0.7930 n7         1 6UT      -0.508000
     11 C3           2.7800     3.6760    -0.2210 c3         1 6UT      -0.039000
     12 C17          0.4430     3.0830    -0.8010 c2         1 6UT       0.204000
     13 N18         -0.1720     4.1960    -0.3560 ns         1 6UT      -0.053000
     14 C7           3.9950     3.2400     0.5570 c2         1 6UT      -0.117000
     15 C12          4.2830     3.5570     1.8290 c2         1 6UT      -0.270000
     16 N11          5.4680     2.9800     2.1960 na         1 6UT       0.293000
     17 C10          5.9840     2.2600     1.1420 ca         1 6UT      -0.185000
     18 C16          7.1360     1.4980     0.9750 ca         1 6UT      -0.118000
     19 C15          7.3800     0.8820    -0.2320 ca         1 6UT      -0.076000
     20 C14          6.4880     1.0150    -1.2880 ca         1 6UT      -0.127000
     21 C13          5.3510     1.7590    -1.1470 ca         1 6UT      -0.026000
     22 C9           5.0810     2.3870     0.0710 ca         1 6UT      -0.084000
     23 P1           1.6100     0.0000     0.0000 p5         1 6UT       1.231000
     24 O5'          2.1470     0.0000     1.5180 os         1 6UT      -0.642000
     25 C5'          3.5180    -0.2080     1.8590 c3         1 6UT       0.129000
     26 C4'          3.6810    -0.1460     3.3780 DU         1 6UT       0.069000
     27 O4'          3.0060    -1.2580     3.9880 os         1 6UT      -0.190000
     28 C3'          5.1740    -0.2510     3.7500 c3         1 6UT      -0.504000
     29 O3'          5.5970     0.9150     4.4590 oh         1 6UT      -0.372000
     30 C2'          5.2500    -1.4980     4.6640 c3         1 6UT       0.028000
     31 O2'          6.1320    -1.2710     5.7650 oh         1 6UT      -0.304000
     32 C1'          3.7790    -1.6370     5.1480 c3         1 6UT      -0.040000
     33 N9           3.4900    -3.0190     5.5340 na         1 6UT       0.377000
     34 C8           2.9240    -3.9770     4.7440 c2         1 6UT      -0.117000
     35 N7           2.8140    -5.0890     5.4080 n2         1 6UT       0.024000
     36 C6           3.4370    -5.7530     7.7910 c2         1 6UT       0.270000
     37 O6           3.0690    -6.9150     7.7550 o          1 6UT      -0.303000
     38 C11         -1.3940     4.6700    -1.0120 c3         1 6UT      -0.060000
     39 H2           1.4910     2.3820     0.9140 h1         1 6UT       0.065000
     40 H3           4.5740    -2.6630     9.5770 hn         1 6UT       0.053667
     41 H4           4.4670    -3.6630    10.9460 hn         1 6UT       0.053667
     42 H5           4.0900    -5.8090     9.7260 hn         1 6UT       0.099000
     43 H6           3.0650     1.3630    -1.2430 hn         1 6UT       0.095000
     44 H7           2.4000     4.6030     0.1920 hc         1 6UT       0.055000
     45 H8           3.0510     3.8270    -1.2590 hc         1 6UT       0.055000
     46 H9           0.1860     4.6790     0.4440 hn         1 6UT       0.069000
     47 H10          3.6700     4.1790     2.4690 h4         1 6UT       0.137000
     48 H11          5.8970     3.0680     3.0960 hn         1 6UT       0.061000
     49 H12          7.8380     1.3880     1.7920 ha         1 6UT       0.089000
     50 H13          8.2770     0.2880    -0.3600 ha         1 6UT       0.095000
     51 H14          6.6950     0.5240    -2.2310 ha         1 6UT       0.107000
     52 H15          4.6600     1.8590    -1.9750 ha         1 6UT       0.126000
     53 H16          4.1260     0.5620     1.3980 h1         1 6UT       0.059500
     54 H17          3.8360    -1.1800     1.5010 h1         1 6UT       0.059500
     55 H18          3.2740     0.7830     3.7590 ha         1 6UT       0.070000
     56 H19          4.3840     0.4540     3.9800 DU         1 6UT       0.416000
     57 H20          6.1310     0.8040     3.6900 ho         1 6UT       0.333000
     58 H21          5.5490    -2.3710     4.0960 h1         1 6UT       0.083000
     59 H22          6.4080    -2.0340     5.2840 ho         1 6UT       0.219000
     60 H23          3.5860    -0.9570     5.9690 h2         1 6UT       0.095000
     61 H24          3.2040    -3.9250     3.6980 h5         1 6UT       0.199000
     62 H25         -1.7530     5.5580    -0.5070 h1         1 6UT       0.039333
     63 H26         -2.1510     3.8970    -0.9660 h1         1 6UT       0.039333
     64 H27         -1.1800     4.9050    -2.0480 h1         1 6UT       0.039333
     65 O19         -0.0160     2.4720    -1.7430 o          1 6UT      -0.330000
     66 H231         5.9410    -3.4830    10.1620 hn         1 6UT       0.053667
@<TRIPOS>BOND
     1     1    23 1   
     2     2     4 1   
     3     2     9 1   
     4     3    23 1   
     5     4     6 1   
     6     4     8 1   
     7     5    10 1   
     8     5    11 1   
     9     5    12 1   
    10     5    39 1   
    11     6    40 1   
    12     6    41 1   
    13     6    66 1   
    14     7     9 1   
    15     7    35 1   
    16     7    36 1   
    17     8    36 1   
    18     8    42 1   
    19     9    33 1   
    20    10    23 1   
    21    10    43 1   
    22    11    14 1   
    23    11    44 1   
    24    11    45 1   
    25    12    13 1   
    26    12    65 1   
    27    13    38 1   
    28    13    46 1   
    29    14    15 1   
    30    14    22 1   
    31    15    16 1   
    32    15    47 1   
    33    16    17 1   
    34    16    48 1   
    35    17    18 1   
    36    17    22 1   
    37    18    19 1   
    38    18    49 1   
    39    19    20 1   
    40    19    50 1   
    41    20    21 1   
    42    20    51 1   
    43    21    22 1   
    44    21    52 1   
    45    23    24 1   
    46    24    25 1   
    47    25    26 1   
    48    25    53 1   
    49    25    54 1   
    50    26    27 1   
    51    26    28 1   
    52    26    55 1   
    53    26    56 1   
    54    27    32 1   
    55    28    29 1   
    56    28    30 1   
    57    28    56 1   
    58    29    57 1   
    59    30    31 1   
    60    30    32 1   
    61    30    58 1   
    62    31    59 1   
    63    32    33 1   
    64    32    60 1   
    65    33    34 1   
    66    34    35 1   
    67    34    61 1   
    68    36    37 1   
    69    38    62 1   
    70    38    63 1   
    71    38    64 1   
@<TRIPOS>SUBSTRUCTURE
     1 6UT         1 TEMP              0 ****  ****    0 ROOT
