@<TRIPOS>MOLECULE
molecule
   27    28     1     0     0
SMALL
bcc


@<TRIPOS>ATOM
      1 C11          0.0000     0.0000     0.0000 ca         1 6UU      -0.078800
      2 C12          1.3960     0.0000     0.0000 ca         1 6UU      -0.013000
      3 C13          2.0740     0.0000     1.1870 ca         1 6UU      -0.205000
      4 C14          1.3850    -0.0020     2.3920 ca         1 6UU      -0.129000
      5 C15          0.0080    -0.0020     2.4150 ca         1 6UU      -0.182000
      6 P1           0.9670    -2.4420    -4.8690 p5         1 6UU       1.153800
      7 O2           1.1810    -2.4160    -6.3340 o          1 6UU      -0.922833
      8 N4          -0.3190    -1.4330    -4.4720 n7         1 6UU      -0.897300
      9 C5          -0.5610    -1.4340    -3.0230 c3         1 6UU       0.235800
     10 C7          -1.0190     0.0010    -1.0530 cc         1 6UU      -0.074400
     11 C8          -2.2140     0.0000    -0.4440 cd         1 6UU      -0.164100
     12 N9          -2.0450    -0.0010     0.9140 na         1 6UU      -0.203400
     13 C10         -0.7020    -0.0070     1.2190 ca         1 6UU      -0.038200
     14 O3           0.6330    -3.9470    -4.4030 o          1 6UU      -0.922833
     15 O1           2.2990    -1.9330    -4.1230 o          1 6UU      -0.922833
     16 H1           2.1380     0.2040    -0.7620 ha         1 6UU       0.166000
     17 H2           3.1550    -0.0360     1.2330 ha         1 6UU       0.118000
     18 H3           1.9480    -0.0010     3.3180 ha         1 6UU       0.100000
     19 H4          -0.4430    -0.0040     3.4000 ha         1 6UU       0.098000
     20 H5          -1.0850    -1.3250    -5.1070 hn         1 6UU       0.349800
     21 H6           0.2920    -1.8660    -2.5150 h1         1 6UU       0.032700
     22 H7          -1.4460    -2.0210    -2.8050 h1         1 6UU       0.032700
     23 H8          -1.6240     0.4340    -3.0480 hc         1 6UU       0.039700
     24 H9           0.1140     0.5890    -2.7580 hc         1 6UU       0.039700
     25 H11         -3.1710     0.0010    -0.9510 h4         1 6UU       0.155000
     26 H10         -2.7870    -0.0010     1.5850 hn         1 6UU       0.268700
     27 C6          -0.7700     0.0020    -2.5400 c3         1 6UU      -0.036200
@<TRIPOS>BOND
     1     5     4 ar
     2     5    13 ar
     3     4     3 ar
     4    13    12 1
     5    13     1 ar
     6     3     2 ar
     7    12    11 1
     8     1     2 ar
     9     1    10 1
    10    11    10 2
    11    10    27 1
    12    27     9 1
    13     9     8 1
    14     8     6 1
    15     7     6 1
    16     6    14 1
    17     6    15 1
    18     2    16 1
    19     3    17 1
    20     4    18 1
    21     5    19 1
    22     8    20 1
    23     9    21 1
    24     9    22 1
    25    27    23 1
    26    27    24 1
    27    11    25 1
    28    12    26 1
@<TRIPOS>SUBSTRUCTURE
     1 6UU         1 TEMP              0 ****  ****    0 ROOT
