@<TRIPOS>MOLECULE
6UU
   27    28     1     0     0
SMALL
bcc


@<TRIPOS>ATOM
      1 C11          0.0000     0.0000     0.0000 ca         1 6UU      -0.079800
      2 C12          1.3960     0.0000     0.0000 ca         1 6UU       0.038000
      3 C13          2.0740     0.0000     1.1870 ca         1 6UU      -0.199000
      4 C14          1.3850    -0.0020     2.3920 ca         1 6UU      -0.108000
      5 C15          0.0080    -0.0020     2.4150 ca         1 6UU      -0.152000
      6 P1           0.9670    -2.4420    -4.8690 p5         1 6UU       0.528800
      7 O2           1.1810    -2.4160    -6.3340 o          1 6UU      -0.745833
      8 N4          -0.3190    -1.4330    -4.4720 n7         1 6UU      -0.599300
      9 C5          -0.5610    -1.4340    -3.0230 c3         1 6UU       0.222800
     10 C7          -1.0190     0.0010    -1.0530 cc         1 6UU      -0.045400
     11 C8          -2.2140     0.0000    -0.4440 cd         1 6UU      -0.342100
     12 N9          -2.0450    -0.0010     0.9140 na         1 6UU       0.318600
     13 C10         -0.7020    -0.0070     1.2190 ca         1 6UU      -0.221200
     14 O3           0.6330    -3.9470    -4.4030 o          1 6UU      -0.745833
     15 O1           2.2990    -1.9330    -4.1230 o          1 6UU      -0.745833
     16 H1           2.1380     0.2040    -0.7620 ha         1 6UU       0.131000
     17 H2           3.1550    -0.0360     1.2330 ha         1 6UU       0.096000
     18 H3           1.9480    -0.0010     3.3180 ha         1 6UU       0.075000
     19 H4          -0.4430    -0.0040     3.4000 ha         1 6UU       0.078000
     20 H5          -1.0850    -1.3250    -5.1070 hn         1 6UU       0.236800
     21 H6           0.2920    -1.8660    -2.5150 h1         1 6UU       0.000700
     22 H7          -1.4460    -2.0210    -2.8050 h1         1 6UU       0.000700
     23 H8          -1.6240     0.4340    -3.0480 hc         1 6UU       0.007700
     24 H9           0.1140     0.5890    -2.7580 hc         1 6UU       0.007700
     25 H11         -3.1710     0.0010    -0.9510 h4         1 6UU       0.135000
     26 H10         -2.7870    -0.0010     1.5850 hn         1 6UU       0.090700
     27 C6          -0.7700     0.0020    -2.5400 c3         1 6UU       0.017800
@<TRIPOS>BOND
     1     1     2 ar  
     2     1    10 1   
     3     1    13 ar  
     4     2     3 ar  
     5     2    16 1   
     6     3     4 ar  
     7     3    17 1   
     8     4     5 ar  
     9     4    18 1   
    10     5    13 ar  
    11     5    19 1   
    12     6     7 1   
    13     6     8 1   
    14     6    14 1   
    15     6    15 1   
    16     8     9 1   
    17     8    20 1   
    18     9    21 1   
    19     9    22 1   
    20     9    27 1   
    21    10    11 2   
    22    10    27 1   
    23    11    12 1   
    24    11    25 1   
    25    12    13 1   
    26    12    26 1   
    27    23    27 1   
    28    24    27 1   
@<TRIPOS>SUBSTRUCTURE
     1 6UU         1 TEMP              0 ****  ****    0 ROOT
