@<TRIPOS>MOLECULE
molecule
   53    55     1     0     0
SMALL
bcc


@<TRIPOS>ATOM
      1 N1           0.0000     0.0000     0.0000 nb         1 6UV      -0.720000
      2 C2           1.3170     0.0000     0.0000 ca         1 6UV       0.949900
      3 NA2          1.9720     0.0010    -1.2170 nv         1 6UV      -1.059500
      4 N3           2.0510     0.0000     1.1080 nb         1 6UV      -0.784000
      5 C4           1.4860    -0.0010     2.3080 ca         1 6UV       0.709900
      6 NA4          2.2480    -0.0010     3.4550 nv         1 6UV      -1.067500
      7 C4A          0.0230    -0.0010     2.3710 ca         1 6UV       0.098000
      8 N5          -0.6340    -0.0030     3.5250 nb         1 6UV      -0.617000
      9 C6          -1.9510    -0.0020     3.5230 ca         1 6UV       0.273300
     10 C7          -2.6590    -0.0020     2.3210 ca         1 6UV       0.362900
     11 N8          -2.0270    -0.0010     1.1670 nb         1 6UV      -0.628000
     12 C8A         -0.6920    -0.0010     1.1470 ca         1 6UV       0.598000
     13 C9          -2.6990    -0.0040     4.8310 c3         1 6UV       0.198500
     14 N10         -2.8370    -1.3800     5.3130 nh         1 6UV      -0.737000
     15 CM          -1.8100    -1.9580     6.1830 c3         1 6UV       0.237100
     16 C11         -6.1500    -3.6480     4.2140 ca         1 6UV      -0.145600
     17 C12         -5.1670    -4.1980     5.0430 ca         1 6UV      -0.047500
     18 C13         -4.0740    -3.4450     5.4050 ca         1 6UV      -0.223000
     19 C14         -3.9440    -2.1380     4.9450 ca         1 6UV       0.181600
     20 C15         -4.9200    -1.5870     4.1200 ca         1 6UV      -0.223000
     21 C16         -6.0160    -2.3340     3.7550 ca         1 6UV      -0.047500
     22 O           -8.1720    -3.9750     3.0960 o          1 6UV      -0.640100
     23 N           -7.4490    -5.7190     4.2650 ns         1 6UV      -0.514900
     24 CA          -8.6110    -6.5190     3.8730 c3         1 6UV      -0.003300
     25 CT          -8.3490    -7.1660     2.5380 c          1 6UV       0.892600
     26 O1          -9.2840    -7.9520     1.9780 o          1 6UV      -0.859300
     27 O2          -7.2990    -6.9790     1.9720 o          1 6UV      -0.859300
     28 CB          -8.8630    -7.6020     4.9250 c3         1 6UV      -0.059400
     29 CG          -9.2510    -6.9450     6.2510 c3         1 6UV      -0.187400
     30 CD          -9.4980    -8.0120     7.2870 c          1 6UV       0.890600
     31 OE1         -9.3770    -9.1770     6.9940 o          1 6UV      -0.873800
     32 OE2         -9.8530    -7.6660     8.5340 o          1 6UV      -0.873800
     33 H1           2.1370     0.8640    -1.6960 hn         1 6UV       0.442300
     34 H2           2.2820    -0.8610    -1.6200 hn         1 6UV       0.442300
     35 H3           2.4790     0.8640     3.9030 hn         1 6UV       0.444800
     36 H4           2.6050    -0.8630     3.8180 hn         1 6UV       0.444800
     37 H5          -3.7420    -0.0010     2.3380 h4         1 6UV       0.055100
     38 H6          -2.1530     0.5820     5.5600 h1         1 6UV       0.062200
     39 H7          -3.6820     0.4280     4.6840 h1         1 6UV       0.062200
     40 H8          -1.3370    -2.7920     5.6780 h1         1 6UV       0.032700
     41 H9          -2.2680    -2.3050     7.1010 h1         1 6UV       0.032700
     42 H10         -1.0660    -1.2050     6.4120 h1         1 6UV       0.032700
     43 H11         -5.2680    -5.2150     5.4010 ha         1 6UV       0.151500
     44 H12         -3.3120    -3.8710     6.0470 ha         1 6UV       0.113000
     45 H13         -4.8160    -0.5690     3.7640 ha         1 6UV       0.113000
     46 H14         -6.7760    -1.9050     3.1120 ha         1 6UV       0.151500
     47 H15         -6.7300    -6.1250     4.8310 hn         1 6UV       0.299500
     48 H16         -9.4820    -5.8790     3.8000 h1         1 6UV       0.068700
     49 H18         -9.6670    -8.2480     4.5930 hc         1 6UV       0.060200
     50 H19         -7.9620    -8.1890     5.0620 hc         1 6UV       0.060200
     51 H20         -8.4470    -6.2990     6.5830 hc         1 6UV       0.021200
     52 H21        -10.1520    -6.3600     6.1140 hc         1 6UV       0.021200
     53 C           -7.3210    -4.4530     3.8210 c          1 6UV       0.664700
@<TRIPOS>BOND
     1    31    30 1
     2    32    30 1
     3    30    29 1
     4    27    25 1
     5    29    28 1
     6    25    26 1
     7    25    24 1
     8    28    24 1
     9    24    23 1
    10    11    10 ar
    11    11    12 ar
    12    10     9 ar
    13     1    12 ar
    14     1     2 ar
    15    12     7 ar
    16     3     2 1
    17    23    53 1
    18     2     4 ar
    19     9    13 1
    20     9     8 ar
    21    13    14 1
    22     7     8 ar
    23     7     5 ar
    24     4     5 ar
    25     5     6 1
    26    17    18 ar
    27    17    16 ar
    28    18    19 ar
    29    53    16 1
    30    53    22 2
    31    16    21 ar
    32    19    14 1
    33    19    20 ar
    34    14    15 1
    35    21    20 ar
    36     3    33 1
    37     3    34 1
    38     6    35 1
    39     6    36 1
    40    10    37 1
    41    13    38 1
    42    13    39 1
    43    15    40 1
    44    15    41 1
    45    15    42 1
    46    17    43 1
    47    18    44 1
    48    20    45 1
    49    21    46 1
    50    23    47 1
    51    24    48 1
    52    28    49 1
    53    28    50 1
    54    29    51 1
    55    29    52 1
@<TRIPOS>SUBSTRUCTURE
     1 6UV         1 TEMP              0 ****  ****    0 ROOT
