@<TRIPOS>MOLECULE
6UV
   53    55     1     0     0
SMALL
bcc


@<TRIPOS>ATOM
      1 N1           0.0000     0.0000     0.0000 nb         1 6UV      -0.585000
      2 C2           1.3170     0.0000     0.0000 ca         1 6UV       0.714900
      3 NA2          1.9720     0.0010    -1.2170 nv         1 6UV      -0.640500
      4 N3           2.0510     0.0000     1.1080 nb         1 6UV      -0.653000
      5 C4           1.4860    -0.0010     2.3080 ca         1 6UV       0.510900
      6 NA4          2.2480    -0.0010     3.4550 nv         1 6UV      -0.633500
      7 C4A          0.0230    -0.0010     2.3710 ca         1 6UV       0.074000
      8 N5          -0.6340    -0.0030     3.5250 nb         1 6UV      -0.503000
      9 C6          -1.9510    -0.0020     3.5230 ca         1 6UV       0.228300
     10 C7          -2.6590    -0.0020     2.3210 ca         1 6UV       0.336900
     11 N8          -2.0270    -0.0010     1.1670 nb         1 6UV      -0.516000
     12 C8A         -0.6920    -0.0010     1.1470 ca         1 6UV       0.500000
     13 C9          -2.6990    -0.0040     4.8310 c3         1 6UV       0.134500
     14 N10         -2.8370    -1.3800     5.3130 nh         1 6UV      -0.395000
     15 CM          -1.8100    -1.9580     6.1830 c3         1 6UV       0.213100
     16 C11         -6.1500    -3.6480     4.2140 ca         1 6UV      -0.146600
     17 C12         -5.1670    -4.1980     5.0430 ca         1 6UV      -0.018500
     18 C13         -4.0740    -3.4450     5.4050 ca         1 6UV      -0.211000
     19 C14         -3.9440    -2.1380     4.9450 ca         1 6UV       0.052600
     20 C15         -4.9200    -1.5870     4.1200 ca         1 6UV      -0.211000
     21 C16         -6.0160    -2.3340     3.7550 ca         1 6UV      -0.018500
     22 O           -8.1720    -3.9750     3.0960 o          1 6UV      -0.687100
     23 N           -7.4490    -5.7190     4.2650 ns         1 6UV      -0.090900
     24 CA          -8.6110    -6.5190     3.8730 c3         1 6UV      -0.113300
     25 CT          -8.3490    -7.1660     2.5380 c          1 6UV       0.987600
     26 O1          -9.2840    -7.9520     1.9780 o          1 6UV      -0.908800
     27 O2          -7.2990    -6.9790     1.9720 o          1 6UV      -0.908800
     28 CB          -8.8630    -7.6020     4.9250 c3         1 6UV      -0.012400
     29 CG          -9.2510    -6.9450     6.2510 c3         1 6UV      -0.143400
     30 CD          -9.4980    -8.0120     7.2870 c          1 6UV       0.983600
     31 OE1         -9.3770    -9.1770     6.9940 o          1 6UV      -0.920800
     32 OE2         -9.8530    -7.6660     8.5340 o          1 6UV      -0.920800
     33 H1           2.1370     0.8640    -1.6960 hn         1 6UV       0.276800
     34 H2           2.2820    -0.8610    -1.6200 hn         1 6UV       0.276800
     35 H3           2.4790     0.8640     3.9030 hn         1 6UV       0.280800
     36 H4           2.6050    -0.8630     3.8180 hn         1 6UV       0.280800
     37 H5          -3.7420    -0.0010     2.3380 h4         1 6UV       0.014100
     38 H6          -2.1530     0.5820     5.5600 h1         1 6UV       0.032700
     39 H7          -3.6820     0.4280     4.6840 h1         1 6UV       0.032700
     40 H8          -1.3370    -2.7920     5.6780 h1         1 6UV       0.003033
     41 H9          -2.2680    -2.3050     7.1010 h1         1 6UV       0.003033
     42 H10         -1.0660    -1.2050     6.4120 h1         1 6UV       0.003033
     43 H11         -5.2680    -5.2150     5.4010 ha         1 6UV       0.121500
     44 H12         -3.3120    -3.8710     6.0470 ha         1 6UV       0.103000
     45 H13         -4.8160    -0.5690     3.7640 ha         1 6UV       0.103000
     46 H14         -6.7760    -1.9050     3.1120 ha         1 6UV       0.121500
     47 H15         -6.7300    -6.1250     4.8310 hn         1 6UV       0.157500
     48 H16         -9.4820    -5.8790     3.8000 h1         1 6UV       0.052700
     49 H18         -9.6670    -8.2480     4.5930 hc         1 6UV       0.036700
     50 H19         -7.9620    -8.1890     5.0620 hc         1 6UV       0.036700
     51 H20         -8.4470    -6.2990     6.5830 hc         1 6UV      -0.000800
     52 H21        -10.1520    -6.3600     6.1140 hc         1 6UV      -0.000800
     53 C           -7.3210    -4.4530     3.8210 c          1 6UV       0.570700
@<TRIPOS>BOND
     1     1     2 ar  
     2     1    12 ar  
     3     2     3 1   
     4     2     4 ar  
     5     3    33 1   
     6     3    34 1   
     7     4     5 ar  
     8     5     6 1   
     9     5     7 ar  
    10     6    35 1   
    11     6    36 1   
    12     7     8 ar  
    13     7    12 ar  
    14     8     9 ar  
    15     9    10 ar  
    16     9    13 1   
    17    10    11 ar  
    18    10    37 1   
    19    11    12 ar  
    20    13    14 1   
    21    13    38 1   
    22    13    39 1   
    23    14    15 1   
    24    14    19 1   
    25    15    40 1   
    26    15    41 1   
    27    15    42 1   
    28    16    17 ar  
    29    16    21 ar  
    30    16    53 1   
    31    17    18 ar  
    32    17    43 1   
    33    18    19 ar  
    34    18    44 1   
    35    19    20 ar  
    36    20    21 ar  
    37    20    45 1   
    38    21    46 1   
    39    22    53 2   
    40    23    24 1   
    41    23    47 1   
    42    23    53 1   
    43    24    25 1   
    44    24    28 1   
    45    24    48 1   
    46    25    26 1   
    47    25    27 1   
    48    28    29 1   
    49    28    49 1   
    50    28    50 1   
    51    29    30 1   
    52    29    51 1   
    53    29    52 1   
    54    30    31 1   
    55    30    32 1   
@<TRIPOS>SUBSTRUCTURE
     1 6UV         1 TEMP              0 ****  ****    0 ROOT
