@<TRIPOS>MOLECULE
6UW
   32    34     1     0     0
SMALL
bcc


@<TRIPOS>ATOM
      1 C10          0.0000     0.0000     0.0000 c          1 6UW       0.631100
      2 O11         -0.6950    -0.0010     0.9960 o          1 6UW      -0.565500
      3 C13          0.6770    -0.0020    -2.1830 c3         1 6UW       0.126300
      4 C15         -2.3670     1.4070    -1.7890 ca         1 6UW      -0.145300
      5 C14         -1.8770    -0.0110    -1.6510 c3         1 6UW       0.144300
      6 C16         -2.2730     2.0570    -3.0050 ca         1 6UW       0.001400
      7 C17         -2.7240     3.3600    -3.1310 ca         1 6UW      -0.129000
      8 C01          4.1960     0.0000    -0.5840 ca         1 6UW      -0.122000
      9 C02          3.2640     0.0010    -1.6090 ca         1 6UW      -0.117000
     10 C03          1.9160     0.0010    -1.3210 ca         1 6UW      -0.140300
     11 C04          1.4760     0.0000     0.0000 ca         1 6UW      -0.130600
     12 C05          2.4230     0.0000     1.0410 ca         1 6UW      -0.022600
     13 C06          3.7820    -0.0000     0.7350 ca         1 6UW      -0.080000
     14 C07          1.9790    -0.0010     2.4520 c          1 6UW       0.946200
     15 O08          2.8900    -0.0020     3.4440 o          1 6UW      -0.859300
     16 O09          0.7940    -0.0010     2.7150 o          1 6UW      -0.859300
     17 N12         -0.4640    -0.0040    -1.2620 n          1 6UW      -0.209800
     18 C18         -3.2670     4.0120    -2.0400 ca         1 6UW      -0.072000
     19 C19         -3.3610     3.3640    -0.8230 ca         1 6UW      -0.139000
     20 C20         -2.9170     2.0590    -0.6970 ca         1 6UW       0.165900
     21 F21         -3.0090     1.4240     0.4910 f          1 6UW      -0.101900
     22 Cl          -1.5900     1.2400    -4.3760 cl         1 6UW      -0.033400
     23 H1           0.6570    -0.8910    -2.8010 h1         1 6UW       0.006700
     24 H2           0.6530     0.8880    -2.8010 h1         1 6UW       0.006700
     25 H3          -2.4580    -0.5220    -0.8940 h1         1 6UW       0.033200
     26 H4          -1.9880    -0.5240    -2.5990 h1         1 6UW       0.033200
     27 H5          -2.6500     3.8690    -4.0840 ha         1 6UW       0.110000
     28 H6           5.2540     0.0000    -0.8170 ha         1 6UW       0.085000
     29 H7           3.5960     0.0020    -2.6410 ha         1 6UW       0.082000
     30 H8           4.5160    -0.0010     1.5320 ha         1 6UW       0.134000
     31 H10         -3.6170     5.0330    -2.1380 ha         1 6UW       0.101000
     32 H11         -3.7890     3.8750     0.0320 ha         1 6UW       0.120000
@<TRIPOS>BOND
     1     1     2 2   
     2     1    11 1   
     3     1    17 1   
     4     3    10 1   
     5     3    17 1   
     6     3    23 1   
     7     3    24 1   
     8     4     5 1   
     9     4     6 ar  
    10     4    20 ar  
    11     5    17 1   
    12     5    25 1   
    13     5    26 1   
    14     6     7 ar  
    15     6    22 1   
    16     7    18 ar  
    17     7    27 1   
    18     8     9 ar  
    19     8    13 ar  
    20     8    28 1   
    21     9    10 ar  
    22     9    29 1   
    23    10    11 ar  
    24    11    12 ar  
    25    12    13 ar  
    26    12    14 1   
    27    13    30 1   
    28    14    15 1   
    29    14    16 1   
    30    18    19 ar  
    31    18    31 1   
    32    19    20 ar  
    33    19    32 1   
    34    20    21 1   
@<TRIPOS>SUBSTRUCTURE
     1 6UW         1 TEMP              0 ****  ****    0 ROOT
