@<TRIPOS>MOLECULE
molecule
   32    34     1     0     0
SMALL
bcc


@<TRIPOS>ATOM
      1 C10          0.0000     0.0000     0.0000 c          1 6UW       0.697100
      2 O11         -0.6950    -0.0010     0.9960 o          1 6UW      -0.538500
      3 C13          0.6770    -0.0020    -2.1830 c3         1 6UW       0.153300
      4 C15         -2.3670     1.4070    -1.7890 ca         1 6UW      -0.141300
      5 C14         -1.8770    -0.0110    -1.6510 c3         1 6UW       0.183300
      6 C16         -2.2730     2.0570    -3.0050 ca         1 6UW       0.060400
      7 C17         -2.7240     3.3600    -3.1310 ca         1 6UW      -0.152000
      8 C01          4.1960     0.0000    -0.5840 ca         1 6UW      -0.141000
      9 C02          3.2640     0.0010    -1.6090 ca         1 6UW      -0.144000
     10 C03          1.9160     0.0010    -1.3210 ca         1 6UW      -0.125300
     11 C04          1.4760     0.0000     0.0000 ca         1 6UW      -0.125600
     12 C05          2.4230     0.0000     1.0410 ca         1 6UW      -0.033600
     13 C06          3.7820    -0.0000     0.7350 ca         1 6UW      -0.105000
     14 C07          1.9790    -0.0010     2.4520 c          1 6UW       0.863200
     15 O08          2.8900    -0.0020     3.4440 o          1 6UW      -0.812300
     16 O09          0.7940    -0.0010     2.7150 o          1 6UW      -0.812300
     17 N12         -0.4640    -0.0040    -1.2620 n          1 6UW      -0.516800
     18 C18         -3.2670     4.0120    -2.0400 ca         1 6UW      -0.100000
     19 C19         -3.3610     3.3640    -0.8230 ca         1 6UW      -0.174000
     20 C20         -2.9170     2.0590    -0.6970 ca         1 6UW       0.178900
     21 F21         -3.0090     1.4240     0.4910 f          1 6UW      -0.098900
     22 Cl          -1.5900     1.2400    -4.3760 cl         1 6UW      -0.115400
     23 H1           0.6570    -0.8910    -2.8010 h1         1 6UW       0.038700
     24 H2           0.6530     0.8880    -2.8010 h1         1 6UW       0.038700
     25 H3          -2.4580    -0.5220    -0.8940 h1         1 6UW       0.066200
     26 H4          -1.9880    -0.5240    -2.5990 h1         1 6UW       0.066200
     27 H5          -2.6500     3.8690    -4.0840 ha         1 6UW       0.137000
     28 H6           5.2540     0.0000    -0.8170 ha         1 6UW       0.109000
     29 H7           3.5960     0.0020    -2.6410 ha         1 6UW       0.103000
     30 H8           4.5160    -0.0010     1.5320 ha         1 6UW       0.161000
     31 H10         -3.6170     5.0330    -2.1380 ha         1 6UW       0.132000
     32 H11         -3.7890     3.8750     0.0320 ha         1 6UW       0.147000
@<TRIPOS>BOND
     1    16    14 1   
     2    13     8 ar  
     3    13    12 ar  
     4     8     9 ar  
     5    14    12 1   
     6    14    15 1   
     7     9    10 ar  
     8    12    11 ar  
     9    10    11 ar  
    10    10     3 1   
    11    11     1 1   
    12     1     2 2   
    13     1    17 1   
    14     3    17 1   
    15    17     5 1   
    16    21    20 1   
    17    19    20 ar  
    18    19    18 ar  
    19    20     4 ar  
    20    18     7 ar  
    21     4     5 1   
    22     4     6 ar  
    23     7     6 ar  
    24     6    22 1   
    25     3    23 1   
    26     3    24 1   
    27     5    25 1   
    28     5    26 1   
    29     7    27 1   
    30     8    28 1   
    31     9    29 1   
    32    13    30 1   
    33    18    31 1   
    34    19    32 1   
@<TRIPOS>SUBSTRUCTURE
     1 6UW         1 TEMP              0 ****  ****    0 ROOT
