@<TRIPOS>MOLECULE
molecule
   63    66     1     0     0
SMALL
bcc


@<TRIPOS>ATOM
      1 F1           0.0000     0.0000     0.0000 f          1 6UX      -0.204300
      2 C1           1.3990     0.0000     0.0000 c3         1 6UX       0.794700
      3 F2           1.8650     0.0000     1.3200 f          1 6UX      -0.204300
      4 F3           1.8660    -1.1420    -0.6600 f          1 6UX      -0.204300
      5 OH           1.8750     1.1680    -0.6720 os         1 6UX      -0.340900
      6 CZ           1.5080     2.3700    -0.1560 ca         1 6UX       0.111100
      7 CE1          1.9360     3.5440    -0.7600 ca         1 6UX      -0.153000
      8 CD1          1.5650     4.7660    -0.2340 ca         1 6UX      -0.109000
      9 CG           0.7630     4.8210     0.8980 ca         1 6UX       0.045600
     10 CD2          0.3360     3.6450     1.5020 ca         1 6UX      -0.109000
     11 CE2          0.7030     2.4240     0.9730 ca         1 6UX      -0.153000
     12 N1           0.3870     6.0600     1.4320 ns         1 6UX      -0.487100
     13 C8           1.2440     7.1000     1.3920 c          1 6UX       0.786100
     14 O            2.3090     6.9870     0.8160 o          1 6UX      -0.645100
     15 N            0.9200     8.2630     1.9890 ns         1 6UX      -0.487100
     16 CA           1.7640     9.3750     1.8630 ca         1 6UX       0.030600
     17 C10          1.2250    10.6520     1.7840 ca         1 6UX      -0.099500
     18 C11          2.0570    11.7460     1.6600 ca         1 6UX      -0.174500
     19 C12          3.4340    11.5700     1.6140 ca         1 6UX       0.180600
     20 C13          3.9730    10.2930     1.6930 ca         1 6UX      -0.174500
     21 C14          3.1420     9.1980     1.8230 ca         1 6UX      -0.099500
     22 N3           4.2770    12.6800     1.4880 nh         1 6UX      -0.731700
     23 C15          3.7140    14.0330     1.4990 c3         1 6UX       0.240100
     24 C16          5.6450    12.5000     1.3530 ca         1 6UX       0.763200
     25 N4           6.2060    12.4680     0.1480 nb         1 6UX      -0.786000
     26 C17          7.5120    12.2950     0.0160 ca         1 6UX       0.932900
     27 N5           8.3030    12.1510     1.0670 nb         1 6UX      -0.813000
     28 C18          7.8120    12.1720     2.2980 ca         1 6UX       0.497200
     29 C19          6.4560    12.3540     2.4800 ca         1 6UX      -0.404600
     30 N6           8.0640    12.2660    -1.2540 nu         1 6UX      -0.760300
     31 C20          9.4430    12.0990    -1.4140 ca         1 6UX       0.181600
     32 C21          9.9360    11.3690    -2.4870 ca         1 6UX      -0.087000
     33 C22         11.2990    11.2060    -2.6420 ca         1 6UX      -0.316500
     34 C23         12.1720    11.7690    -1.7290 ca         1 6UX      -0.054000
     35 C24         11.6840    12.4970    -0.6580 ca         1 6UX      -0.115000
     36 C25         10.3220    12.6690    -0.5020 ca         1 6UX      -0.033000
     37 S1          11.9260    10.2800    -4.0030 sy         1 6UX       1.222200
     38 O3          13.2150     9.8240    -3.6170 o          1 6UX      -0.519300
     39 O4          10.8810     9.4060    -4.4080 o          1 6UX      -0.519300
     40 N7          12.1590    11.3420    -5.2520 nz         1 6UX      -0.806500
     41 H1           2.5610     3.5020    -1.6440 ha         1 6UX       0.152500
     42 H2           1.8990     5.6820    -0.7060 ha         1 6UX       0.157000
     43 H3          -0.2910     3.6860     2.3850 ha         1 6UX       0.157000
     44 H4           0.3700     1.5080     1.4440 ha         1 6UX       0.152500
     45 H5          -0.5270     6.1800     1.8210 hn         1 6UX       0.322500
     46 H6           0.0880     8.3270     2.5410 hn         1 6UX       0.321500
     47 H7           0.1510    10.7890     1.8200 ha         1 6UX       0.155000
     48 H8           1.6360    12.7420     1.5980 ha         1 6UX       0.135000
     49 H9           5.0470    10.1560     1.6600 ha         1 6UX       0.135000
     50 H10          3.5620     8.2020     1.8840 ha         1 6UX       0.155000
     51 H11          4.5160    14.7580     1.4320 h1         1 6UX       0.044033
     52 H12          3.0470    14.1530     0.6540 h1         1 6UX       0.044033
     53 H13          3.1630    14.1870     2.4190 h1         1 6UX       0.044033
     54 H14          8.4690    12.0540     3.1520 h4         1 6UX       0.042100
     55 H15          6.0290    12.3750     3.4760 ha         1 6UX       0.170000
     56 H16          7.4790    12.3860    -2.0570 hn         1 6UX       0.476800
     57 H17          9.2520    10.9280    -3.2020 ha         1 6UX       0.157000
     58 H18         13.2400    11.6380    -1.8510 ha         1 6UX       0.153000
     59 H19         12.3700    12.9390     0.0540 ha         1 6UX       0.166000
     60 H20          9.9410    13.2380     0.3370 ha         1 6UX       0.191000
     61 H21         11.2880    11.7730    -5.4910 hn         1 6UX       0.490800
     62 H22         12.8140    12.0460    -4.9740 hn         1 6UX       0.490800
     63 H73         12.5160    10.8490    -6.0470 hn         1 6UX       0.490800
@<TRIPOS>BOND
     1     1     2 1
     2     2     3 1
     3     2     4 1
     4     2     5 1
     5     5     6 1
     6     6     7 ar
     7     6    11 ar
     8     7     8 ar
     9     8     9 ar
    10     9    10 ar
    11     9    12 1
    12    10    11 ar
    13    12    13 1
    14    13    14 2
    15    13    15 1
    16    15    16 1
    17    16    17 ar
    18    16    21 ar
    19    17    18 ar
    20    18    19 ar
    21    19    20 ar
    22    19    22 1
    23    20    21 ar
    24    22    23 1
    25    22    24 1
    26    24    25 ar
    27    24    29 ar
    28    25    26 ar
    29    26    27 ar
    30    26    30 1
    31    27    28 ar
    32    28    29 ar
    33    30    31 1
    34    31    32 ar
    35    31    36 ar
    36    32    33 ar
    37    33    34 ar
    38    33    37 1
    39    34    35 ar
    40    35    36 ar
    41    37    38 2
    42    37    39 2
    43    37    40 1
    44     7    41 1
    45     8    42 1
    46    10    43 1
    47    11    44 1
    48    12    45 1
    49    15    46 1
    50    17    47 1
    51    18    48 1
    52    20    49 1
    53    21    50 1
    54    23    51 1
    55    23    52 1
    56    23    53 1
    57    28    54 1
    58    29    55 1
    59    30    56 1
    60    32    57 1
    61    34    58 1
    62    35    59 1
    63    36    60 1
    64    40    61 1
    65    40    62 1
    66    63    40 1
@<TRIPOS>SUBSTRUCTURE
     1 6UX         1 TEMP              0 ****  ****    0 ROOT
