@<TRIPOS>MOLECULE
6UX
   63    66     1     0     0
SMALL
bcc


@<TRIPOS>ATOM
      1 F1           0.0000     0.0000     0.0000 f          1 6UX      -0.196633
      2 C1           1.3990     0.0000     0.0000 c3         1 6UX       0.755700
      3 F2           1.8650     0.0000     1.3200 f          1 6UX      -0.196633
      4 F3           1.8660    -1.1420    -0.6600 f          1 6UX      -0.196633
      5 OH           1.8750     1.1680    -0.6720 os         1 6UX      -0.313900
      6 CZ           1.5080     2.3700    -0.1560 ca         1 6UX       0.126100
      7 CE1          1.9360     3.5440    -0.7600 ca         1 6UX      -0.141000
      8 CD1          1.5650     4.7660    -0.2340 ca         1 6UX      -0.075500
      9 CG           0.7630     4.8210     0.8980 ca         1 6UX      -0.104400
     10 CD2          0.3360     3.6450     1.5020 ca         1 6UX      -0.075500
     11 CE2          0.7030     2.4240     0.9730 ca         1 6UX      -0.141000
     12 N1           0.3870     6.0600     1.4320 ns         1 6UX      -0.046100
     13 C8           1.2440     7.1000     1.3920 c          1 6UX       0.556100
     14 O            2.3090     6.9870     0.8160 o          1 6UX      -0.697100
     15 N            0.9200     8.2630     1.9890 ns         1 6UX      -0.045100
     16 CA           1.7640     9.3750     1.8630 ca         1 6UX      -0.119400
     17 C10          1.2250    10.6520     1.7840 ca         1 6UX      -0.068000
     18 C11          2.0570    11.7460     1.6600 ca         1 6UX      -0.159000
     19 C12          3.4340    11.5700     1.6140 ca         1 6UX       0.049600
     20 C13          3.9730    10.2930     1.6930 ca         1 6UX      -0.159000
     21 C14          3.1420     9.1980     1.8230 ca         1 6UX      -0.068000
     22 N3           4.2770    12.6800     1.4880 nh         1 6UX      -0.364700
     23 C15          3.7140    14.0330     1.4990 c3         1 6UX       0.214100
     24 C16          5.6450    12.5000     1.3530 ca         1 6UX       0.590200
     25 N4           6.2060    12.4680     0.1480 nb         1 6UX      -0.659000
     26 C17          7.5120    12.2950     0.0160 ca         1 6UX       0.692900
     27 N5           8.3030    12.1510     1.0670 nb         1 6UX      -0.699000
     28 C18          7.8120    12.1720     2.2980 ca         1 6UX       0.490200
     29 C19          6.4560    12.3540     2.4800 ca         1 6UX      -0.370600
     30 N6           8.0640    12.2660    -1.2540 nu         1 6UX      -0.297300
     31 C20          9.4430    12.0990    -1.4140 ca         1 6UX       0.017600
     32 C21          9.9360    11.3690    -2.4870 ca         1 6UX      -0.051000
     33 C22         11.2990    11.2060    -2.6420 ca         1 6UX      -0.195500
     34 C23         12.1720    11.7690    -1.7290 ca         1 6UX      -0.021000
     35 C24         11.6840    12.4970    -0.6580 ca         1 6UX      -0.082000
     36 C25         10.3220    12.6690    -0.5020 ca         1 6UX      -0.017000
     37 S1          11.9260    10.2800    -4.0030 sy         1 6UX       0.930200
     38 O3          13.2150     9.8240    -3.6170 o          1 6UX      -0.495800
     39 O4          10.8810     9.4060    -4.4080 o          1 6UX      -0.495800
     40 N7          12.1590    11.3420    -5.2520 nz         1 6UX      -0.133500
     41 H1           2.5610     3.5020    -1.6440 ha         1 6UX       0.126000
     42 H2           1.8990     5.6820    -0.7060 ha         1 6UX       0.130000
     43 H3          -0.2910     3.6860     2.3850 ha         1 6UX       0.130000
     44 H4           0.3700     1.5080     1.4440 ha         1 6UX       0.126000
     45 H5          -0.5270     6.1800     1.8210 hn         1 6UX       0.163500
     46 H6           0.0880     8.3270     2.5410 hn         1 6UX       0.162500
     47 H7           0.1510    10.7890     1.8200 ha         1 6UX       0.128000
     48 H8           1.6360    12.7420     1.5980 ha         1 6UX       0.112000
     49 H9           5.0470    10.1560     1.6600 ha         1 6UX       0.112000
     50 H10          3.5620     8.2020     1.8840 ha         1 6UX       0.128000
     51 H11          4.5160    14.7580     1.4320 h1         1 6UX       0.010033
     52 H12          3.0470    14.1530     0.6540 h1         1 6UX       0.010033
     53 H13          3.1630    14.1870     2.4190 h1         1 6UX       0.010033
     54 H14          8.4690    12.0540     3.1520 h4         1 6UX      -0.006900
     55 H15          6.0290    12.3750     3.4760 ha         1 6UX       0.144000
     56 H16          7.4790    12.3860    -2.0570 hn         1 6UX       0.302800
     57 H17          9.2520    10.9280    -3.2020 ha         1 6UX       0.130000
     58 H18         13.2400    11.6380    -1.8510 ha         1 6UX       0.124000
     59 H19         12.3700    12.9390     0.0540 ha         1 6UX       0.129000
     60 H20          9.9410    13.2380     0.3370 ha         1 6UX       0.155000
     61 H21         11.2880    11.7730    -5.4910 hn         1 6UX       0.312800
     62 H22         12.8140    12.0460    -4.9740 hn         1 6UX       0.312800
     63 H73         12.5160    10.8490    -6.0470 hn         1 6UX       0.312800
@<TRIPOS>BOND
     1     1     2 1   
     2     2     3 1   
     3     2     4 1   
     4     2     5 1   
     5     5     6 1   
     6     6     7 ar  
     7     6    11 ar  
     8     7     8 ar  
     9     7    41 1   
    10     8     9 ar  
    11     8    42 1   
    12     9    10 ar  
    13     9    12 1   
    14    10    11 ar  
    15    10    43 1   
    16    11    44 1   
    17    12    13 1   
    18    12    45 1   
    19    13    14 2   
    20    13    15 1   
    21    15    16 1   
    22    15    46 1   
    23    16    17 ar  
    24    16    21 ar  
    25    17    18 ar  
    26    17    47 1   
    27    18    19 ar  
    28    18    48 1   
    29    19    20 ar  
    30    19    22 1   
    31    20    21 ar  
    32    20    49 1   
    33    21    50 1   
    34    22    23 1   
    35    22    24 1   
    36    23    51 1   
    37    23    52 1   
    38    23    53 1   
    39    24    25 ar  
    40    24    29 ar  
    41    25    26 ar  
    42    26    27 ar  
    43    26    30 1   
    44    27    28 ar  
    45    28    29 ar  
    46    28    54 1   
    47    29    55 1   
    48    30    31 1   
    49    30    56 1   
    50    31    32 ar  
    51    31    36 ar  
    52    32    33 ar  
    53    32    57 1   
    54    33    34 ar  
    55    33    37 1   
    56    34    35 ar  
    57    34    58 1   
    58    35    36 ar  
    59    35    59 1   
    60    36    60 1   
    61    37    38 2   
    62    37    39 2   
    63    37    40 1   
    64    40    61 1   
    65    40    62 1   
    66    40    63 1   
@<TRIPOS>SUBSTRUCTURE
     1 6UX         1 TEMP              0 ****  ****    0 ROOT
