@<TRIPOS>MOLECULE
6UY
   42    44     1     0     0
SMALL
bcc


@<TRIPOS>ATOM
      1 C1           0.0000     0.0000     0.0000 c          1 6UY       0.555100
      2 C2           2.0480    -0.0940    -1.2090 ca         1 6UY      -0.103400
      3 C3           1.5440     0.5090    -2.3530 ca         1 6UY      -0.093500
      4 C4           2.2360     0.4150    -3.5450 ca         1 6UY      -0.114000
      5 C5           3.4320    -0.2800    -3.5980 ca         1 6UY       0.090900
      6 C6           3.9370    -0.8830    -2.4580 ca         1 6UY      -0.114000
      7 C7           3.2500    -0.7870    -1.2640 ca         1 6UY      -0.093500
      8 N1           1.3480     0.0000     0.0000 ns         1 6UY      -0.030100
      9 N2          -4.9720    -0.3380     0.7280 nb         1 6UY      -0.431000
     10 N3          -6.4460    -1.7700     2.5100 nb         1 6UY      -0.654000
     11 N4          -4.5310    -2.2190     3.7940 nv         1 6UY      -0.517500
     12 C8          -0.7540     0.0000     1.3050 c3         1 6UY       0.170400
     13 O1          -0.6070     0.0050    -1.0500 o          1 6UY      -0.604100
     14 F1           4.1080    -0.3720    -4.7650 f          1 6UY      -0.129900
     15 O2          -2.1770    -0.1200     1.0420 os         1 6UY      -0.336900
     16 C9          -2.9220    -0.7370     1.9790 c          1 6UY       0.649600
     17 C10         -4.3760    -0.8950     1.7800 ca         1 6UY       0.088500
     18 C11         -6.2700    -0.4800     0.5540 ca         1 6UY       0.173900
     19 C12         -7.0230    -1.2100     1.4620 ca         1 6UY       0.389900
     20 C13         -5.1390    -1.6350     2.6990 ca         1 6UY       0.463900
     21 O3          -2.3970    -1.1650     2.9880 o          1 6UY      -0.628000
     22 C14         -0.4860     1.2880     2.0400 ca         1 6UY      -0.141300
     23 C15          0.5120     1.3430     2.9960 ca         1 6UY      -0.079000
     24 C16          0.7580     2.5250     3.6700 ca         1 6UY      -0.100000
     25 C17          0.0070     3.6500     3.3890 ca         1 6UY      -0.088000
     26 C18         -0.9900     3.5950     2.4330 ca         1 6UY      -0.100000
     27 C19         -1.2320     2.4150     1.7540 ca         1 6UY      -0.079000
     28 H1           0.6070     1.0520    -2.3130 ha         1 6UY       0.129000
     29 H2           1.8430     0.8850    -4.4380 ha         1 6UY       0.119500
     30 H3           4.8740    -1.4250    -2.5010 ha         1 6UY       0.119500
     31 H4           3.6450    -1.2580    -0.3720 ha         1 6UY       0.129000
     32 H5           1.8480     0.0340     0.8660 hn         1 6UY       0.171500
     33 H6          -3.5410    -2.1430     3.9170 hn         1 6UY       0.304300
     34 H7          -5.0780    -2.7400     4.4510 hn         1 6UY       0.304300
     35 H8          -0.4260    -0.8360     1.9110 h1         1 6UY       0.050700
     36 H9          -6.7510    -0.0250    -0.3030 h4         1 6UY      -0.002900
     37 H10         -8.0900    -1.3220     1.3100 h4         1 6UY      -0.015900
     38 H11          1.1010     0.4610     3.2160 ha         1 6UY       0.114500
     39 H12          1.5400     2.5680     4.4200 ha         1 6UY       0.106000
     40 H13          0.1980     4.5750     3.9200 ha         1 6UY       0.104000
     41 H14         -1.5770     4.4790     2.2120 ha         1 6UY       0.106000
     42 H15         -2.0130     2.3720     1.0050 ha         1 6UY       0.114500
@<TRIPOS>BOND
     1     1     8 1   
     2     1    12 1   
     3     1    13 2   
     4     2     3 ar  
     5     2     7 ar  
     6     2     8 1   
     7     3     4 ar  
     8     3    28 1   
     9     4     5 ar  
    10     4    29 1   
    11     5     6 ar  
    12     5    14 1   
    13     6     7 ar  
    14     6    30 1   
    15     7    31 1   
    16     8    32 1   
    17     9    17 ar  
    18     9    18 ar  
    19    10    19 ar  
    20    10    20 ar  
    21    11    20 1   
    22    11    33 1   
    23    11    34 1   
    24    12    15 1   
    25    12    22 1   
    26    12    35 1   
    27    15    16 1   
    28    16    17 1   
    29    16    21 2   
    30    17    20 ar  
    31    18    19 ar  
    32    18    36 1   
    33    19    37 1   
    34    22    23 ar  
    35    22    27 ar  
    36    23    24 ar  
    37    23    38 1   
    38    24    25 ar  
    39    24    39 1   
    40    25    26 ar  
    41    25    40 1   
    42    26    27 ar  
    43    26    41 1   
    44    27    42 1   
@<TRIPOS>SUBSTRUCTURE
     1 6UY         1 TEMP              0 ****  ****    0 ROOT
