@<TRIPOS>MOLECULE
molecule
   42    44     1     0     0
SMALL
bcc


@<TRIPOS>ATOM
      1 C1           0.0000     0.0000     0.0000 c          1 6UY       0.663100
      2 C2           2.0480    -0.0940    -1.2090 ca         1 6UY       0.041600
      3 C3           1.5440     0.5090    -2.3530 ca         1 6UY      -0.119500
      4 C4           2.2360     0.4150    -3.5450 ca         1 6UY      -0.150500
      5 C5           3.4320    -0.2800    -3.5980 ca         1 6UY       0.116900
      6 C6           3.9370    -0.8830    -2.4580 ca         1 6UY      -0.150500
      7 C7           3.2500    -0.7870    -1.2640 ca         1 6UY      -0.119500
      8 N1           1.3480     0.0000     0.0000 ns         1 6UY      -0.473100
      9 N2          -4.9720    -0.3380     0.7280 nb         1 6UY      -0.561000
     10 N3          -6.4460    -1.7700     2.5100 nb         1 6UY      -0.741000
     11 N4          -4.5310    -2.2190     3.7940 nv         1 6UY      -0.984500
     12 C8          -0.7540     0.0000     1.3050 c3         1 6UY       0.126400
     13 O1          -0.6070     0.0050    -1.0500 o          1 6UY      -0.559100
     14 F1           4.1080    -0.3720    -4.7650 f          1 6UY      -0.142900
     15 O2          -2.1770    -0.1200     1.0420 os         1 6UY      -0.355900
     16 C9          -2.9220    -0.7370     1.9790 c          1 6UY       0.584600
     17 C10         -4.3760    -0.8950     1.7800 ca         1 6UY       0.171500
     18 C11         -6.2700    -0.4800     0.5540 ca         1 6UY       0.210900
     19 C12         -7.0230    -1.2100     1.4620 ca         1 6UY       0.384900
     20 C13         -5.1390    -1.6350     2.6990 ca         1 6UY       0.644900
     21 O3          -2.3970    -1.1650     2.9880 o          1 6UY      -0.582000
     22 C14         -0.4860     1.2880     2.0400 ca         1 6UY      -0.125300
     23 C15          0.5120     1.3430     2.9960 ca         1 6UY      -0.106000
     24 C16          0.7580     2.5250     3.6700 ca         1 6UY      -0.127500
     25 C17          0.0070     3.6500     3.3890 ca         1 6UY      -0.115000
     26 C18         -0.9900     3.5950     2.4330 ca         1 6UY      -0.127500
     27 C19         -1.2320     2.4150     1.7540 ca         1 6UY      -0.106000
     28 H1           0.6070     1.0520    -2.3130 ha         1 6UY       0.154000
     29 H2           1.8430     0.8850    -4.4380 ha         1 6UY       0.148000
     30 H3           4.8740    -1.4250    -2.5010 ha         1 6UY       0.148000
     31 H4           3.6450    -1.2580    -0.3720 ha         1 6UY       0.154000
     32 H5           1.8480     0.0340     0.8660 hn         1 6UY       0.326500
     33 H6          -3.5410    -2.1430     3.9170 hn         1 6UY       0.462300
     34 H7          -5.0780    -2.7400     4.4510 hn         1 6UY       0.462300
     35 H8          -0.4260    -0.8360     1.9110 h1         1 6UY       0.088700
     36 H9          -6.7510    -0.0250    -0.3030 h4         1 6UY       0.037100
     37 H10         -8.0900    -1.3220     1.3100 h4         1 6UY       0.033100
     38 H11          1.1010     0.4610     3.2160 ha         1 6UY       0.141000
     39 H12          1.5400     2.5680     4.4200 ha         1 6UY       0.135000
     40 H13          0.1980     4.5750     3.9200 ha         1 6UY       0.133000
     41 H14         -1.5770     4.4790     2.2120 ha         1 6UY       0.135000
     42 H15         -2.0130     2.3720     1.0050 ha         1 6UY       0.141000
@<TRIPOS>BOND
     1    14     5 1
     2     6     5 ar
     3     6     7 ar
     4     5     4 ar
     5    25    26 ar
     6    25    24 ar
     7    26    27 ar
     8     7     2 ar
     9     4     3 ar
    10    24    23 ar
    11    27    22 ar
    12     2     3 ar
    13     2     8 1
    14    23    22 ar
    15    13     1 2
    16    22    12 1
    17     8     1 1
    18     1    12 1
    19    12    15 1
    20    15    16 1
    21    16    21 2
    22    16    17 1
    23     9    17 ar
    24     9    18 ar
    25    17    20 ar
    26    18    19 ar
    27    20    11 1
    28    20    10 ar
    29    19    10 ar
    30     3    28 1
    31     4    29 1
    32     6    30 1
    33     7    31 1
    34     8    32 1
    35    11    33 1
    36    11    34 1
    37    12    35 1
    38    18    36 1
    39    19    37 1
    40    23    38 1
    41    24    39 1
    42    25    40 1
    43    26    41 1
    44    27    42 1
@<TRIPOS>SUBSTRUCTURE
     1 6UY         1 TEMP              0 ****  ****    0 ROOT
