@<TRIPOS>MOLECULE
6V2
   69    71     1     0     0
SMALL
bcc


@<TRIPOS>ATOM
      1 O3           0.0000     0.0000     0.0000 o          1 6V2      -0.576300
      2 S            1.4210     0.0000     0.0000 s6         1 6V2       0.952900
      3 O2           2.1530     0.0000     1.2180 o          1 6V2      -0.576300
      4 C20          2.0590    -1.2700    -1.1270 c3         1 6V2       0.053700
      5 C21          1.8510    -2.6320    -0.5170 ca         1 6V2      -0.072300
      6 C26          0.6830    -3.3290    -0.7620 ca         1 6V2      -0.087000
      7 C25          0.4940    -4.5790    -0.2020 ca         1 6V2      -0.101500
      8 C24          1.4710    -5.1320     0.6030 ca         1 6V2      -0.092000
      9 C23          2.6410    -4.4350     0.8480 ca         1 6V2      -0.101500
     10 C22          2.8320    -3.1870     0.2840 ca         1 6V2      -0.087000
     11 N4           1.8290     1.4350    -0.7210 n7         1 6V2      -0.568100
     12 C12          1.2510     1.7910    -2.0190 c3         1 6V2       0.140500
     13 C13          2.2770     2.5800    -2.8350 c3         1 6V2       0.017900
     14 C14          3.4480     1.6900    -3.1630 ca         1 6V2      -0.104300
     15 C19          3.4760     0.9950    -4.3570 ca         1 6V2      -0.101500
     16 C18          4.5500     0.1790    -4.6580 ca         1 6V2      -0.095000
     17 C17          5.5970     0.0580    -3.7640 ca         1 6V2      -0.097000
     18 C16          5.5710     0.7540    -2.5710 ca         1 6V2      -0.095000
     19 C15          4.4990     1.5740    -2.2720 ca         1 6V2      -0.101500
     20 C11          0.0220     2.6370    -1.8060 c          1 6V2       0.585100
     21 O1          -0.1660     3.1760    -0.7350 o          1 6V2      -0.624100
     22 N           -0.8690     2.7960    -2.8040 n          1 6V2      -0.134800
     23 C           -0.6880     2.0770    -4.0690 c3         1 6V2       0.076300
     24 C1          -2.0180     3.6870    -2.6270 c3         1 6V2      -0.008000
     25 C2          -1.6490     5.0780    -3.0750 c          1 6V2       0.559100
     26 O           -0.5360     5.3030    -3.5000 o          1 6V2      -0.626100
     27 N1          -2.5570     6.0720    -3.0020 ns         1 6V2      -0.213900
     28 C3          -2.1970     7.4240    -3.4370 c3         1 6V2       0.102300
     29 C4          -3.3790     8.3410    -3.2550 ca         1 6V2      -0.057300
     30 C9          -3.5480     9.0190    -2.0600 ca         1 6V2      -0.054000
     31 C8          -4.6290     9.8590    -1.8870 ca         1 6V2      -0.073500
     32 C7          -5.5510    10.0250    -2.9190 ca         1 6V2      -0.227900
     33 C10         -6.7140    10.9260    -2.7400 ce         1 6V2       0.209800
     34 N3          -6.8740    11.5660    -1.6160 n2         1 6V2      -0.484100
     35 N2          -7.6240    11.0880    -3.7610 nz         1 6V2       0.190400
     36 C6          -5.3770     9.3390    -4.1210 ca         1 6V2      -0.073500
     37 C5          -4.2890     8.5060    -4.2840 ca         1 6V2      -0.054000
     38 H201         3.1160    -1.1060    -1.2940 h1         1 6V2       0.069700
     39 H202         1.5310    -1.2130    -2.0710 h1         1 6V2       0.069700
     40 H4           2.4230     2.0830    -0.2430 hn         1 6V2       0.363800
     41 H26         -0.0680    -2.9120    -1.4230 ha         1 6V2       0.112000
     42 H22          3.8440    -2.8690     0.4990 ha         1 6V2       0.112000
     43 H25         -0.4240    -5.1230    -0.3890 ha         1 6V2       0.106000
     44 H24          1.3280    -6.1170     1.0310 ha         1 6V2       0.104000
     45 H23          3.4210    -4.8820     1.4520 ha         1 6V2       0.106000
     46 H12          0.9800     0.8890    -2.5540 h1         1 6V2       0.037700
     47 H131         1.8190     2.9270    -3.7530 hc         1 6V2       0.037700
     48 H132         2.6200     3.4310    -2.2590 hc         1 6V2       0.037700
     49 H19          2.6550     1.0890    -5.0570 ha         1 6V2       0.106000
     50 H15          4.4790     2.1190    -1.3360 ha         1 6V2       0.106000
     51 H18          4.5700    -0.3660    -5.5930 ha         1 6V2       0.107500
     52 H17          6.4390    -0.5820    -3.9990 ha         1 6V2       0.108000
     53 H16          6.3930     0.6620    -1.8710 ha         1 6V2       0.107500
     54 HC1          0.1750     2.4740    -4.5900 h1         1 6V2       0.013033
     55 HC2         -0.5350     1.0240    -3.8660 h1         1 6V2       0.013033
     56 HC3         -1.5710     2.2010    -4.6850 h1         1 6V2       0.013033
     57 H11C        -2.3010     3.7080    -1.5810 h1         1 6V2       0.047700
     58 H12C        -2.8500     3.3260    -3.2190 h1         1 6V2       0.047700
     59 H1          -3.4840     5.8810    -2.6780 hn         1 6V2       0.174500
     60 H31C        -1.3650     7.7850    -2.8450 h1         1 6V2       0.041700
     61 H32C        -1.9140     7.4030    -4.4830 h1         1 6V2       0.041700
     62 H9          -2.8300     8.8890    -1.2590 ha         1 6V2       0.133500
     63 H5          -4.1520     7.9730    -5.2170 ha         1 6V2       0.133500
     64 H8          -4.7590    10.3890    -0.9510 ha         1 6V2       0.100000
     65 H6          -6.0890     9.4660    -4.9270 ha         1 6V2       0.100000
     66 H3          -6.2130    11.4490    -0.8740 hn         1 6V2       0.382400
     67 H21N        -8.0360    10.2040    -3.9850 hn         1 6V2       0.222133
     68 H22N        -8.3390    11.7260    -3.4730 hn         1 6V2       0.222133
     69 H231        -7.1580    11.4530    -4.5690 hn         1 6V2       0.222133
@<TRIPOS>BOND
     1     1     2 2   
     2     2     3 2   
     3     2     4 1   
     4     2    11 1   
     5     4     5 1   
     6     4    38 1   
     7     4    39 1   
     8     5     6 ar  
     9     5    10 ar  
    10     6     7 ar  
    11     6    41 1   
    12     7     8 ar  
    13     7    43 1   
    14     8     9 ar  
    15     8    44 1   
    16     9    10 ar  
    17     9    45 1   
    18    10    42 1   
    19    11    12 1   
    20    11    40 1   
    21    12    13 1   
    22    12    20 1   
    23    12    46 1   
    24    13    14 1   
    25    13    47 1   
    26    13    48 1   
    27    14    15 ar  
    28    14    19 ar  
    29    15    16 ar  
    30    15    49 1   
    31    16    17 ar  
    32    16    51 1   
    33    17    18 ar  
    34    17    52 1   
    35    18    19 ar  
    36    18    53 1   
    37    19    50 1   
    38    20    21 2   
    39    20    22 1   
    40    22    23 1   
    41    22    24 1   
    42    23    54 1   
    43    23    55 1   
    44    23    56 1   
    45    24    25 1   
    46    24    57 1   
    47    24    58 1   
    48    25    26 2   
    49    25    27 1   
    50    27    28 1   
    51    27    59 1   
    52    28    29 1   
    53    28    60 1   
    54    28    61 1   
    55    29    30 ar  
    56    29    37 ar  
    57    30    31 ar  
    58    30    62 1   
    59    31    32 ar  
    60    31    64 1   
    61    32    33 1   
    62    32    36 ar  
    63    33    34 2   
    64    33    35 1   
    65    34    66 1   
    66    35    67 1   
    67    35    68 1   
    68    35    69 1   
    69    36    37 ar  
    70    36    65 1   
    71    37    63 1   
@<TRIPOS>SUBSTRUCTURE
     1 6V2         1 TEMP              0 ****  ****    0 ROOT
