@<TRIPOS>MOLECULE
molecule
   69    71     1     0     0
SMALL
bcc


@<TRIPOS>ATOM
      1 O3           0.0000     0.0000     0.0000 o          1 6V2      -0.619300
      2 S            1.4210     0.0000     0.0000 s6         1 6V2       1.327900
      3 O2           2.1530     0.0000     1.2180 o          1 6V2      -0.619300
      4 C20          2.0590    -1.2700    -1.1270 c3         1 6V2      -0.167300
      5 C21          1.8510    -2.6320    -0.5170 ca         1 6V2      -0.077300
      6 C26          0.6830    -3.3290    -0.7620 ca         1 6V2      -0.111500
      7 C25          0.4940    -4.5790    -0.2020 ca         1 6V2      -0.129500
      8 C24          1.4710    -5.1320     0.6030 ca         1 6V2      -0.116000
      9 C23          2.6410    -4.4350     0.8480 ca         1 6V2      -0.129500
     10 C22          2.8320    -3.1870     0.2840 ca         1 6V2      -0.111500
     11 N4           1.8290     1.4350    -0.7210 n7         1 6V2      -0.890100
     12 C12          1.2510     1.7910    -2.0190 c3         1 6V2       0.189500
     13 C13          2.2770     2.5800    -2.8350 c3         1 6V2      -0.039100
     14 C14          3.4480     1.6900    -3.1630 ca         1 6V2      -0.096300
     15 C19          3.4760     0.9950    -4.3570 ca         1 6V2      -0.126000
     16 C18          4.5500     0.1790    -4.6580 ca         1 6V2      -0.123500
     17 C17          5.5970     0.0580    -3.7640 ca         1 6V2      -0.123000
     18 C16          5.5710     0.7540    -2.5710 ca         1 6V2      -0.123500
     19 C15          4.4990     1.5740    -2.2720 ca         1 6V2      -0.126000
     20 C11          0.0220     2.6370    -1.8060 c          1 6V2       0.660100
     21 O1          -0.1660     3.1760    -0.7350 o          1 6V2      -0.581100
     22 N           -0.8690     2.7960    -2.8040 n          1 6V2      -0.477800
     23 C           -0.6880     2.0770    -4.0690 c3         1 6V2       0.093300
     24 C1          -2.0180     3.6870    -2.6270 c3         1 6V2       0.044000
     25 C2          -1.6490     5.0780    -3.0750 c          1 6V2       0.639100
     26 O           -0.5360     5.3030    -3.5000 o          1 6V2      -0.584100
     27 N1          -2.5570     6.0720    -3.0020 ns         1 6V2      -0.598900
     28 C3          -2.1970     7.4240    -3.4370 c3         1 6V2       0.151300
     29 C4          -3.3790     8.3410    -3.2550 ca         1 6V2      -0.050300
     30 C9          -3.5480     9.0190    -2.0600 ca         1 6V2      -0.101000
     31 C8          -4.6290     9.8590    -1.8870 ca         1 6V2      -0.086500
     32 C7          -5.5510    10.0250    -2.9190 ca         1 6V2      -0.194900
     33 C10         -6.7140    10.9260    -2.7400 ce         1 6V2       0.540800
     34 N3          -6.8740    11.5660    -1.6160 n2         1 6V2      -0.678100
     35 N2          -7.6240    11.0880    -3.7610 nz         1 6V2      -0.801600
     36 C6          -5.3770     9.3390    -4.1210 ca         1 6V2      -0.086500
     37 C5          -4.2890     8.5060    -4.2840 ca         1 6V2      -0.101000
     38 H201         3.1160    -1.1060    -1.2940 h1         1 6V2       0.101700
     39 H202         1.5310    -1.2130    -2.0710 h1         1 6V2       0.101700
     40 H4           2.4210     2.0840    -0.2420 hn         1 6V2       0.466800
     41 H26         -0.0700    -2.9100    -1.4180 ha         1 6V2       0.139000
     42 H22          3.8480    -2.8840     0.5030 ha         1 6V2       0.139000
     43 H25         -0.4230    -5.1240    -0.3920 ha         1 6V2       0.135000
     44 H24          1.3280    -6.1160     1.0310 ha         1 6V2       0.134000
     45 H23          3.4210    -4.8810     1.4520 ha         1 6V2       0.135000
     46 H12          0.9800     0.8890    -2.5540 h1         1 6V2       0.065700
     47 H131         1.8190     2.9270    -3.7530 hc         1 6V2       0.069700
     48 H132         2.6200     3.4310    -2.2590 hc         1 6V2       0.069700
     49 H19          2.6550     1.0890    -5.0570 ha         1 6V2       0.128500
     50 H15          4.4790     2.1190    -1.3360 ha         1 6V2       0.128500
     51 H18          4.5700    -0.3660    -5.5930 ha         1 6V2       0.135500
     52 H17          6.4390    -0.5820    -3.9990 ha         1 6V2       0.136000
     53 H16          6.3930     0.6620    -1.8710 ha         1 6V2       0.135500
     54 HC1          0.1750     2.4740    -4.5900 h1         1 6V2       0.043700
     55 HC2         -1.5710     2.2010    -4.6850 h1         1 6V2       0.043700
     56 HC3         -0.5350     1.0240    -3.8660 h1         1 6V2       0.043700
     57 H11C        -2.8500     3.3260    -3.2190 h1         1 6V2       0.081700
     58 H12C        -2.3010     3.7080    -1.5810 h1         1 6V2       0.081700
     59 H1          -3.4840     5.8800    -2.6780 hn         1 6V2       0.314500
     60 H31C        -1.3650     7.7850    -2.8450 h1         1 6V2       0.073700
     61 H32C        -1.9140     7.4030    -4.4830 h1         1 6V2       0.073700
     62 H9          -2.8300     8.8890    -1.2590 ha         1 6V2       0.167500
     63 H5          -4.1520     7.9730    -5.2170 ha         1 6V2       0.167500
     64 H8          -4.7590    10.3890    -0.9510 ha         1 6V2       0.140000
     65 H6          -6.0890     9.4660    -4.9270 ha         1 6V2       0.140000
     66 H3          -7.6590    12.1750    -1.4940 hn         1 6V2       0.433400
     67 H21N        -8.3390    11.7260    -3.4730 hn         1 6V2       0.465133
     68 H22N        -8.0360    10.2040    -3.9850 hn         1 6V2       0.465133
     69 H231        -7.1580    11.4520    -4.5690 hn         1 6V2       0.465133
@<TRIPOS>BOND
     1     1     2 2
     2     2     3 2
     3     2     4 1
     4     2    11 1
     5     4     5 1
     6     5     6 ar
     7     5    10 ar
     8     6     7 ar
     9     7     8 ar
    10     8     9 ar
    11     9    10 ar
    12    11    12 1
    13    12    13 1
    14    12    20 1
    15    13    14 1
    16    14    15 ar
    17    14    19 ar
    18    15    16 ar
    19    16    17 ar
    20    17    18 ar
    21    18    19 ar
    22    20    21 2
    23    20    22 1
    24    22    23 1
    25    22    24 1
    26    24    25 1
    27    25    26 2
    28    25    27 1
    29    27    28 1
    30    28    29 1
    31    29    30 ar
    32    29    37 ar
    33    30    31 ar
    34    31    32 ar
    35    32    33 1
    36    32    36 ar
    37    33    34 2
    38    33    35 1
    39    36    37 ar
    40     4    38 1
    41     4    39 1
    42    11    40 1
    43     6    41 1
    44    10    42 1
    45     7    43 1
    46     8    44 1
    47     9    45 1
    48    12    46 1
    49    13    47 1
    50    13    48 1
    51    15    49 1
    52    19    50 1
    53    16    51 1
    54    17    52 1
    55    18    53 1
    56    23    54 1
    57    23    55 1
    58    23    56 1
    59    24    57 1
    60    24    58 1
    61    27    59 1
    62    28    60 1
    63    28    61 1
    64    30    62 1
    65    37    63 1
    66    31    64 1
    67    36    65 1
    68    34    66 1
    69    35    67 1
    70    35    68 1
    71    69    35 1
@<TRIPOS>SUBSTRUCTURE
     1 6V2         1 TEMP              0 ****  ****    0 ROOT
