@<TRIPOS>MOLECULE
6V3
   65    70     1     0     0
SMALL
bcc


@<TRIPOS>ATOM
      1 C1           0.0000     0.0000     0.0000 ca         1 6V3       0.023600
      2 C2           1.3780     0.0000     0.0000 ca         1 6V3      -0.139000
      3 C3           2.0890     0.0000     1.1970 ca         1 6V3      -0.094000
      4 C4           1.4460     0.0000     2.3970 ca         1 6V3      -0.081000
      5 C5          -0.6940     0.0010     1.2290 ca         1 6V3      -0.029000
      6 C6           0.0410     0.0010     2.4410 ca         1 6V3      -0.018000
      7 C7          -0.6470     0.0000     3.6640 ca         1 6V3      -0.098000
      8 C8          -2.0250     0.0010     3.6680 ca         1 6V3      -0.089400
      9 C9          -2.7420     0.0010     2.4670 ca         1 6V3      -0.130000
     10 C10         -2.0970     0.0010     1.2690 ca         1 6V3      -0.060000
     11 C12         -0.3700     1.1950    -2.0010 c3         1 6V3       0.102300
     12 C13         -1.2180     1.2050    -3.2760 c3         1 6V3       0.156300
     13 C15         -1.2980    -1.2140    -3.2410 c3         1 6V3       0.156300
     14 N11         -0.7020     0.0060    -1.2040 nh         1 6V3      -0.393000
     15 N14         -0.9650    -0.0250    -4.0390 n3         1 6V3      -0.543600
     16 C16         -0.4500    -1.2240    -1.9670 c3         1 6V3       0.102300
     17 C17          0.4260    -0.0790    -4.5060 c3         1 6V3       0.167100
     18 N18         -2.7140     0.0010     4.8860 ns         1 6V3      -0.047100
     19 C19         -2.2190    -0.6770     5.9400 c          1 6V3       0.556100
     20 N20         -2.9640    -0.8330     7.0520 ns         1 6V3      -0.048100
     21 O21         -1.0980    -1.1460     5.8890 o          1 6V3      -0.687100
     22 C22         -2.3910    -1.3740     8.2100 ca         1 6V3      -0.082400
     23 C23         -1.3780    -2.3170     8.1080 ca         1 6V3      -0.114500
     24 C24         -0.8130    -2.8490     9.2500 ca         1 6V3      -0.097500
     25 C25         -1.2570    -2.4400    10.5000 ca         1 6V3       0.083100
     26 C26         -2.2690    -1.4970    10.6030 ca         1 6V3      -0.097500
     27 C27         -2.8310    -0.9610     9.4610 ca         1 6V3      -0.114500
     28 O28         -0.7000    -2.9650    11.6240 os         1 6V3      -0.211200
     29 C29          0.5070    -2.4890    12.0180 ca         1 6V3       0.233100
     30 C30          1.0920    -1.4030    11.3810 ca         1 6V3      -0.366300
     31 C31          2.3270    -0.9470    11.8120 ca         1 6V3       0.462200
     32 N32          2.9630    -1.5200    12.8130 nb         1 6V3      -0.619000
     33 C33          1.2030    -3.0780    13.0840 ca         1 6V3      -0.256100
     34 C34          2.4560    -2.5620    13.4610 ca         1 6V3       0.262800
     35 N35          2.9010    -3.3190    14.5170 na         1 6V3       0.260900
     36 C36          1.9820    -4.2890    14.8190 cc         1 6V3      -0.282100
     37 C37          0.9370    -4.2040    13.9810 cd         1 6V3      -0.127200
     38 H1           1.9140    -0.0000    -0.9420 ha         1 6V3       0.108000
     39 H2           3.1730    -0.0000     1.1730 ha         1 6V3       0.102000
     40 H3           2.0170     0.0000     3.3180 ha         1 6V3       0.111000
     41 H4          -0.0990     0.0000     4.5980 ha         1 6V3       0.158000
     42 H5          -3.8250     0.0010     2.4910 ha         1 6V3       0.102000
     43 H6          -2.6660     0.0010     0.3470 ha         1 6V3       0.124000
     44 H8          -0.5790     2.0870    -1.4220 h1         1 6V3       0.022450
     45 H9          -2.2670     1.2550    -3.0100 h1         1 6V3       0.028950
     46 H10         -0.9520     2.0640    -3.8790 h1         1 6V3       0.028950
     47 H11         -2.3480    -1.1870    -2.9740 h1         1 6V3       0.028950
     48 H12         -1.0890    -2.1060    -3.8190 h1         1 6V3       0.028950
     49 H14         -0.7160    -2.0830    -1.3630 h1         1 6V3       0.022450
     50 H15          0.5990    -1.2740    -2.2330 h1         1 6V3       0.022450
     51 H16          0.7000     0.8780    -4.9340 h1         1 6V3       0.005033
     52 H17          0.5240    -0.8520    -5.2590 h1         1 6V3       0.005033
     53 H18          1.0790    -0.3030    -3.6720 h1         1 6V3       0.005033
     54 H19         -3.5580     0.5290     4.9830 hn         1 6V3       0.161500
     55 H20         -3.9330    -0.5840     7.0430 hn         1 6V3       0.162500
     56 H21         -1.0310    -2.6360     7.1330 ha         1 6V3       0.135000
     57 H22         -0.0220    -3.5850     9.1710 ha         1 6V3       0.118500
     58 H23         -2.6130    -1.1770    11.5780 ha         1 6V3       0.118500
     59 H24         -3.6210    -0.2240     9.5410 ha         1 6V3       0.135000
     60 H25          0.5870    -0.9160    10.5560 ha         1 6V3       0.137000
     61 H26          2.7800    -0.0990    11.3140 h4         1 6V3      -0.023900
     62 H27          3.7650    -3.1780    15.0000 hn         1 6V3       0.117700
     63 H28          2.0830    -5.0150    15.6170 h4         1 6V3       0.141000
     64 H29          0.0590    -4.8380    13.9780 ha         1 6V3       0.133000
     65 H7           0.6800     1.1690    -2.2670 h1         1 6V3       0.022450
@<TRIPOS>BOND
     1     1     2 ar  
     2     1     5 ar  
     3     1    14 1   
     4     2     3 ar  
     5     2    38 1   
     6     3     4 ar  
     7     3    39 1   
     8     4     6 ar  
     9     4    40 1   
    10     5     6 ar  
    11     5    10 ar  
    12     6     7 ar  
    13     7     8 ar  
    14     7    41 1   
    15     8     9 ar  
    16     8    18 1   
    17     9    10 ar  
    18     9    42 1   
    19    10    43 1   
    20    11    12 1   
    21    11    14 1   
    22    11    44 1   
    23    11    65 1   
    24    12    15 1   
    25    12    45 1   
    26    12    46 1   
    27    13    15 1   
    28    13    16 1   
    29    13    47 1   
    30    13    48 1   
    31    14    16 1   
    32    15    17 1   
    33    16    49 1   
    34    16    50 1   
    35    17    51 1   
    36    17    52 1   
    37    17    53 1   
    38    18    19 1   
    39    18    54 1   
    40    19    20 1   
    41    19    21 2   
    42    20    22 1   
    43    20    55 1   
    44    22    23 ar  
    45    22    27 ar  
    46    23    24 ar  
    47    23    56 1   
    48    24    25 ar  
    49    24    57 1   
    50    25    26 ar  
    51    25    28 1   
    52    26    27 ar  
    53    26    58 1   
    54    27    59 1   
    55    28    29 1   
    56    29    30 ar  
    57    29    33 ar  
    58    30    31 ar  
    59    30    60 1   
    60    31    32 ar  
    61    31    61 1   
    62    32    34 ar  
    63    33    34 ar  
    64    33    37 1   
    65    34    35 1   
    66    35    36 1   
    67    35    62 1   
    68    36    37 2   
    69    36    63 1   
    70    37    64 1   
@<TRIPOS>SUBSTRUCTURE
     1 6V3         1 TEMP              0 ****  ****    0 ROOT
