@<TRIPOS>MOLECULE
molecule
   65    70     1     0     0
SMALL
bcc


@<TRIPOS>ATOM
      1 C1           0.0000     0.0000     0.0000 ca         1 6V3       0.099600
      2 C2           1.3780     0.0000     0.0000 ca         1 6V3      -0.167000
      3 C3           2.0890     0.0000     1.1970 ca         1 6V3      -0.119000
      4 C4           1.4460     0.0000     2.3970 ca         1 6V3      -0.114000
      5 C5          -0.6940     0.0010     1.2290 ca         1 6V3      -0.033000
      6 C6           0.0410     0.0010     2.4410 ca         1 6V3      -0.019000
      7 C7          -0.6470     0.0000     3.6640 ca         1 6V3      -0.123000
      8 C8          -2.0250     0.0010     3.6680 ca         1 6V3       0.059600
      9 C9          -2.7420     0.0010     2.4670 ca         1 6V3      -0.161000
     10 C10         -2.0970     0.0010     1.2690 ca         1 6V3      -0.080000
     11 C12         -0.3700     1.1950    -2.0010 c3         1 6V3       0.125300
     12 C13         -1.2180     1.2050    -3.2760 c3         1 6V3       0.161800
     13 C15         -1.2980    -1.2140    -3.2410 c3         1 6V3       0.161800
     14 N11         -0.7020     0.0060    -1.2040 nh         1 6V3      -0.616000
     15 N14         -0.9650    -0.0250    -4.0390 n3         1 6V3      -0.721600
     16 C16         -0.4500    -1.2240    -1.9670 c3         1 6V3       0.125300
     17 C17          0.4260    -0.0790    -4.5060 c3         1 6V3       0.142100
     18 N18         -2.7140     0.0010     4.8860 ns         1 6V3      -0.488100
     19 C19         -2.2190    -0.6770     5.9400 c          1 6V3       0.785100
     20 N20         -2.9640    -0.8330     7.0520 ns         1 6V3      -0.489100
     21 O21         -1.0980    -1.1460     5.8890 o          1 6V3      -0.637100
     22 C22         -2.3910    -1.3740     8.2100 ca         1 6V3       0.068600
     23 C23         -1.3780    -2.3170     8.1080 ca         1 6V3      -0.141000
     24 C24         -0.8130    -2.8490     9.2500 ca         1 6V3      -0.119500
     25 C25         -1.2570    -2.4400    10.5000 ca         1 6V3       0.076100
     26 C26         -2.2690    -1.4970    10.6030 ca         1 6V3      -0.119500
     27 C27         -2.8310    -0.9610     9.4610 ca         1 6V3      -0.141000
     28 O28         -0.7000    -2.9650    11.6240 os         1 6V3      -0.237200
     29 C29          0.5070    -2.4890    12.0180 ca         1 6V3       0.215100
     30 C30          1.0920    -1.4030    11.3810 ca         1 6V3      -0.374300
     31 C31          2.3270    -0.9470    11.8120 ca         1 6V3       0.482200
     32 N32          2.9630    -1.5200    12.8130 nb         1 6V3      -0.743000
     33 C33          1.2030    -3.0780    13.0840 ca         1 6V3      -0.247100
     34 C34          2.4560    -2.5620    13.4610 ca         1 6V3       0.494800
     35 N35          2.9010    -3.3190    14.5170 na         1 6V3      -0.279100
     36 C36          1.9820    -4.2890    14.8190 cc         1 6V3      -0.111100
     37 C37          0.9370    -4.2040    13.9810 cd         1 6V3      -0.169200
     38 H1           1.9140    -0.0000    -0.9420 ha         1 6V3       0.129000
     39 H2           3.1730    -0.0000     1.1730 ha         1 6V3       0.129000
     40 H3           2.0170     0.0000     3.3180 ha         1 6V3       0.138000
     41 H4          -0.0990     0.0000     4.5980 ha         1 6V3       0.176000
     42 H5          -3.8250     0.0010     2.4910 ha         1 6V3       0.127000
     43 H6          -2.6660     0.0010     0.3470 ha         1 6V3       0.155000
     44 H8          -0.5790     2.0870    -1.4220 h1         1 6V3       0.044450
     45 H9          -2.2670     1.2550    -3.0100 h1         1 6V3       0.062450
     46 H10         -0.9520     2.0640    -3.8790 h1         1 6V3       0.062450
     47 H11         -2.3480    -1.1870    -2.9740 h1         1 6V3       0.062450
     48 H12         -1.0890    -2.1060    -3.8190 h1         1 6V3       0.062450
     49 H14         -0.7160    -2.0830    -1.3630 h1         1 6V3       0.044450
     50 H15          0.5990    -1.2740    -2.2330 h1         1 6V3       0.044450
     51 H16          0.7000     0.8780    -4.9340 h1         1 6V3       0.033700
     52 H17          0.5240    -0.8520    -5.2590 h1         1 6V3       0.033700
     53 H18          1.0790    -0.3030    -3.6720 h1         1 6V3       0.033700
     54 H19         -3.5580     0.5290     4.9830 hn         1 6V3       0.320500
     55 H20         -3.9330    -0.5840     7.0430 hn         1 6V3       0.321500
     56 H21         -1.0310    -2.6360     7.1330 ha         1 6V3       0.159000
     57 H22         -0.0220    -3.5850     9.1710 ha         1 6V3       0.149000
     58 H23         -2.6130    -1.1770    11.5780 ha         1 6V3       0.149000
     59 H24         -3.6210    -0.2240     9.5410 ha         1 6V3       0.159000
     60 H25          0.5870    -0.9160    10.5560 ha         1 6V3       0.153000
     61 H26          2.7800    -0.0990    11.3140 h4         1 6V3       0.025100
     62 H27          3.7650    -3.1780    15.0000 hn         1 6V3       0.304700
     63 H28          2.0830    -5.0150    15.6170 h4         1 6V3       0.169000
     64 H29          0.0590    -4.8380    13.9780 ha         1 6V3       0.161000
     65 H7           0.6800     1.1690    -2.2670 h1         1 6V3       0.044450
@<TRIPOS>BOND
     1    12    11 1   
     2    12    15 1   
     3    11    14 1   
     4    17    15 1   
     5    15    13 1   
     6    13    16 1   
     7     2     3 ar  
     8     2     1 ar  
     9     3     4 ar  
    10    14    16 1   
    11    14     1 1   
    12     1     5 ar  
    13     4     6 ar  
    14     5     6 ar  
    15     5    10 ar  
    16     6     7 ar  
    17    36    37 2   
    18    36    35 1   
    19    10     9 ar  
    20    37    33 1   
    21    35    34 1   
    22    26    27 ar  
    23    26    25 ar  
    24     7     8 ar  
    25    27    22 ar  
    26    21    19 2   
    27    33    34 ar  
    28    33    29 ar  
    29     9     8 ar  
    30    34    32 ar  
    31     8    18 1   
    32    28    29 1   
    33    28    25 1   
    34    29    30 ar  
    35    19    18 1   
    36    19    20 1   
    37    25    24 ar  
    38    32    31 ar  
    39    22    20 1   
    40    22    23 ar  
    41    30    31 ar  
    42    24    23 ar  
    43     2    38 1   
    44     3    39 1   
    45     4    40 1   
    46     7    41 1   
    47     9    42 1   
    48    10    43 1   
    49    11    65 1   
    50    11    44 1   
    51    12    45 1   
    52    12    46 1   
    53    13    47 1   
    54    13    48 1   
    55    16    49 1   
    56    16    50 1   
    57    17    51 1   
    58    17    52 1   
    59    17    53 1   
    60    18    54 1   
    61    20    55 1   
    62    23    56 1   
    63    24    57 1   
    64    26    58 1   
    65    27    59 1   
    66    30    60 1   
    67    31    61 1   
    68    35    62 1   
    69    36    63 1   
    70    37    64 1   
@<TRIPOS>SUBSTRUCTURE
     1 6V3         1 TEMP              0 ****  ****    0 ROOT
