@<TRIPOS>MOLECULE
molecule
   77    81     1     0     0
SMALL
bcc


@<TRIPOS>ATOM
      1 C1           0.0000     0.0000     0.0000 ca         1 6V4      -0.126600
      2 C2           1.3970     0.0000     0.0000 ca         1 6V4      -0.201000
      3 C3           2.0860     0.0000     1.1970 ca         1 6V4       0.101100
      4 C4           1.3860     0.0010     2.4040 ca         1 6V4       0.049600
      5 C5          -0.0040     0.0010     2.4040 ca         1 6V4      -0.121000
      6 C6          -0.6960     0.0010     1.2130 ca         1 6V4      -0.093000
      7 C7          -0.7400     0.0070    -1.2770 c          1 6V4       0.678700
      8 C12          0.9340    -1.5220    -2.2100 c3         1 6V4       0.098000
      9 C13          0.6460    -2.9770    -2.6000 c3         1 6V4       0.144800
     10 C15         -1.3060    -2.3280    -3.8850 c3         1 6V4       0.144800
     11 O8          -1.7310     0.7000    -1.4020 o          1 6V4      -0.604100
     12 N9          -0.3190    -0.7570    -2.3040 n          1 6V4      -0.488800
     13 O10          3.4450    -0.0010     1.1990 os         1 6V4      -0.332900
     14 N11          2.0820     0.0000     3.6130 ns         1 6V4      -0.444100
     15 N14         -0.0040    -3.0070    -3.9170 n3         1 6V4      -0.733600
     16 C16         -1.0980    -0.8470    -3.5470 c3         1 6V4       0.098000
     17 C17         -0.1410    -4.3860    -4.4050 c3         1 6V4       0.152100
     18 C18          1.5160     0.5260     4.7170 c          1 6V4       0.600600
     19 C19          2.2830     0.6080     5.9710 cc         1 6V4       0.303800
     20 O20          0.3690     0.9320     4.6780 o          1 6V4      -0.603100
     21 S21          2.9420     1.0540     8.3450 ss         1 6V4      -0.133300
     22 C22          1.7630     1.1260     7.1070 cd         1 6V4      -0.147400
     23 C23          4.0870     0.3120     7.2350 cd         1 6V4       0.511900
     24 N24          3.5330     0.1770     6.0690 nc         1 6V4      -0.671000
     25 C25          5.4690    -0.0940     7.5770 ca         1 6V4      -0.108500
     26 C26          4.0970     0.0650    -0.0710 c3         1 6V4       0.136100
     27 C27          4.3560     1.5270    -0.4360 c3         1 6V4      -0.104600
     28 C28          5.4280    -0.6880    -0.0020 c3         1 6V4      -0.104600
     29 C29          6.2900    -0.6710     6.6070 ca         1 6V4      -0.104000
     30 C30          7.5780    -1.0480     6.9280 ca         1 6V4      -0.114000
     31 C31          8.0600    -0.8570     8.2100 ca         1 6V4      -0.155000
     32 C32          7.2490    -0.2850     9.1830 ca         1 6V4       0.075600
     33 C33          5.9560     0.1020     8.8690 ca         1 6V4      -0.115000
     34 N34          7.7410    -0.0950    10.4800 ns         1 6V4      -0.490100
     35 C35          6.9150    -0.2140    11.5380 c          1 6V4       0.780100
     36 N36          7.3640     0.0630    12.7780 ns         1 6V4      -0.486100
     37 O37          5.7650    -0.5720    11.3740 o          1 6V4      -0.631100
     38 C38          6.5390    -0.1570    13.8860 ca         1 6V4       0.068600
     39 C39          5.6500    -1.2240    13.8920 ca         1 6V4      -0.146500
     40 C40          4.8410    -1.4410    14.9900 ca         1 6V4      -0.109000
     41 C41          4.9150    -0.5980    16.0830 ca         1 6V4      -0.145000
     42 C42          5.7990     0.4660    16.0810 ca         1 6V4      -0.109000
     43 C43          6.6110     0.6890    14.9860 ca         1 6V4      -0.146500
     44 H1           1.9400    -0.0010    -0.9380 ha         1 6V4       0.151000
     45 H2          -0.5440     0.0020     3.3430 ha         1 6V4       0.189000
     46 H3          -1.7790     0.0010     1.2160 ha         1 6V4       0.154000
     47 H5           1.6670    -1.1030    -2.8880 h1         1 6V4       0.065950
     48 H6          -0.0110    -3.4240    -1.8640 h1         1 6V4       0.041950
     49 H7           1.5770    -3.5290    -2.6450 h1         1 6V4       0.041950
     50 H8          -1.7810    -2.4130    -4.8560 h1         1 6V4       0.041950
     51 H9          -1.9330    -2.7860    -3.1290 h1         1 6V4       0.041950
     52 H10          2.9830    -0.4320     3.6710 hn         1 6V4       0.352500
     53 H12         -0.5560    -0.3640    -4.3510 h1         1 6V4       0.065950
     54 H13         -2.0590    -0.3680    -3.4090 h1         1 6V4       0.065950
     55 H14          0.8340    -4.8570    -4.4360 h1         1 6V4       0.033033
     56 H15         -0.5700    -4.3770    -5.4000 h1         1 6V4       0.033033
     57 H16         -0.7900    -4.9420    -3.7380 h1         1 6V4       0.033033
     58 H17          0.7620     1.5250     7.2160 h4         1 6V4       0.204000
     59 H18          3.4650    -0.3890    -0.8250 h1         1 6V4       0.043700
     60 H19          5.1840     1.9050     0.1510 hc         1 6V4       0.047700
     61 H20          4.5980     1.5990    -1.4900 hc         1 6V4       0.047700
     62 H21          3.4690     2.1140    -0.2280 hc         1 6V4       0.047700
     63 H22          5.9110    -0.6550    -0.9710 hc         1 6V4       0.047700
     64 H23          5.2450    -1.7190     0.2760 hc         1 6V4       0.047700
     65 H24          6.0680    -0.2220     0.7370 hc         1 6V4       0.047700
     66 H25          5.9160    -0.8220     5.6010 ha         1 6V4       0.153000
     67 H26          8.2140    -1.4950     6.1740 ha         1 6V4       0.137000
     68 H27          9.0710    -1.1570     8.4570 ha         1 6V4       0.131000
     69 H28          5.3230     0.5490     9.6270 ha         1 6V4       0.166000
     70 H29          8.7230     0.0350    10.6260 hn         1 6V4       0.321500
     71 H30          8.2430     0.5260    12.8970 hn         1 6V4       0.319500
     72 H31          5.5910    -1.8850    13.0360 ha         1 6V4       0.144500
     73 H32          4.1470    -2.2730    14.9950 ha         1 6V4       0.133500
     74 H33          4.2790    -0.7700    16.9430 ha         1 6V4       0.131000
     75 H34          5.8540     1.1250    16.9390 ha         1 6V4       0.133500
     76 H35          7.3030     1.5220    14.9840 ha         1 6V4       0.144500
     77 H4           1.3060    -1.4860    -1.1940 h1         1 6V4       0.065950
@<TRIPOS>BOND
     1    11     7 2
     2     7    12 1
     3     7     1 1
     4     8    12 1
     5     8     9 1
     6    16    12 1
     7    16    10 1
     8    27    26 1
     9     2     1 ar
    10     2     3 ar
    11    13    26 1
    12    13     3 1
    13     1     6 ar
    14    15     9 1
    15    15    10 1
    16    15    17 1
    17    28    26 1
    18     3     4 ar
    19     6     5 ar
    20     4     5 ar
    21     4    14 1
    22    40    41 ar
    23    40    39 ar
    24    41    42 ar
    25    14    18 1
    26    39    38 ar
    27    42    43 ar
    28    18    20 2
    29    18    19 1
    30    37    35 2
    31    38    43 ar
    32    38    36 1
    33    24    19 1
    34    24    23 2
    35    19    22 2
    36    35    36 1
    37    35    34 1
    38    30    29 ar
    39    30    31 ar
    40    29    25 ar
    41    31    32 ar
    42    25    23 1
    43    25    33 ar
    44    23    21 1
    45    32    33 ar
    46    32    34 1
    47    22    21 1
    48     2    44 1
    49     5    45 1
    50     6    46 1
    51     8    77 1
    52     8    47 1
    53     9    48 1
    54     9    49 1
    55    10    50 1
    56    10    51 1
    57    14    52 1
    58    16    53 1
    59    16    54 1
    60    17    55 1
    61    17    56 1
    62    17    57 1
    63    22    58 1
    64    26    59 1
    65    27    60 1
    66    27    61 1
    67    27    62 1
    68    28    63 1
    69    28    64 1
    70    28    65 1
    71    29    66 1
    72    30    67 1
    73    31    68 1
    74    33    69 1
    75    34    70 1
    76    36    71 1
    77    39    72 1
    78    40    73 1
    79    41    74 1
    80    42    75 1
    81    43    76 1
@<TRIPOS>SUBSTRUCTURE
     1 6V4         1 TEMP              0 ****  ****    0 ROOT
