@<TRIPOS>MOLECULE
6V4
   77    81     1     0     0
SMALL
bcc


@<TRIPOS>ATOM
      1 C1           0.0000     0.0000     0.0000 ca         1 6V4      -0.123600
      2 C2           1.3970     0.0000     0.0000 ca         1 6V4      -0.208000
      3 C3           2.0860     0.0000     1.1970 ca         1 6V4       0.116100
      4 C4           1.3860     0.0010     2.4040 ca         1 6V4      -0.111400
      5 C5          -0.0040     0.0010     2.4040 ca         1 6V4      -0.103000
      6 C6          -0.6960     0.0010     1.2130 ca         1 6V4      -0.060000
      7 C7          -0.7400     0.0070    -1.2770 c          1 6V4       0.612700
      8 C12          0.9340    -1.5220    -2.2100 c3         1 6V4       0.027000
      9 C13          0.6460    -2.9770    -2.6000 c3         1 6V4       0.139300
     10 C15         -1.3060    -2.3280    -3.8850 c3         1 6V4       0.139300
     11 O8          -1.7310     0.7000    -1.4020 o          1 6V4      -0.644100
     12 N9          -0.3190    -0.7570    -2.3040 n          1 6V4      -0.149800
     13 O10          3.4450    -0.0010     1.1990 os         1 6V4      -0.307900
     14 N11          2.0820     0.0000     3.6130 ns         1 6V4       0.012900
     15 N14         -0.0040    -3.0070    -3.9170 n3         1 6V4      -0.546600
     16 C16         -1.0980    -0.8470    -3.5470 c3         1 6V4       0.027000
     17 C17         -0.1410    -4.3860    -4.4050 c3         1 6V4       0.189100
     18 C18          1.5160     0.5260     4.7170 c          1 6V4       0.494600
     19 C19          2.2830     0.6080     5.9710 cc         1 6V4       0.247800
     20 O20          0.3690     0.9320     4.6780 o          1 6V4      -0.646100
     21 S21          2.9420     1.0540     8.3450 ss         1 6V4      -0.257300
     22 C22          1.7630     1.1260     7.1070 cd         1 6V4      -0.056400
     23 C23          4.0870     0.3120     7.2350 cd         1 6V4       0.517900
     24 N24          3.5330     0.1770     6.0690 nc         1 6V4      -0.561000
     25 C25          5.4690    -0.0940     7.5770 ca         1 6V4      -0.111500
     26 C26          4.0970     0.0650    -0.0710 c3         1 6V4       0.160100
     27 C27          4.3560     1.5270    -0.4360 c3         1 6V4      -0.014600
     28 C28          5.4280    -0.6880    -0.0020 c3         1 6V4      -0.014600
     29 C29          6.2900    -0.6710     6.6070 ca         1 6V4      -0.082000
     30 C30          7.5780    -1.0480     6.9280 ca         1 6V4      -0.085000
     31 C31          8.0600    -0.8570     8.2100 ca         1 6V4      -0.128000
     32 C32          7.2490    -0.2850     9.1830 ca         1 6V4      -0.070400
     33 C33          5.9560     0.1020     8.8690 ca         1 6V4      -0.089000
     34 N34          7.7410    -0.0950    10.4800 ns         1 6V4      -0.054100
     35 C35          6.9150    -0.2140    11.5380 c          1 6V4       0.552100
     36 N36          7.3640     0.0630    12.7780 ns         1 6V4      -0.047100
     37 O37          5.7650    -0.5720    11.3740 o          1 6V4      -0.678100
     38 C38          6.5390    -0.1570    13.8860 ca         1 6V4      -0.077400
     39 C39          5.6500    -1.2240    13.8920 ca         1 6V4      -0.119500
     40 C40          4.8410    -1.4410    14.9900 ca         1 6V4      -0.080500
     41 C41          4.9150    -0.5980    16.0830 ca         1 6V4      -0.116000
     42 C42          5.7990     0.4660    16.0810 ca         1 6V4      -0.080500
     43 C43          6.6110     0.6890    14.9860 ca         1 6V4      -0.119500
     44 H1           1.9400    -0.0010    -0.9380 ha         1 6V4       0.146000
     45 H2          -0.5440     0.0020     3.3430 ha         1 6V4       0.169000
     46 H3          -1.7790     0.0010     1.2160 ha         1 6V4       0.123000
     47 H5           1.6670    -1.1030    -2.8880 h1         1 6V4       0.043200
     48 H6          -0.0110    -3.4240    -1.8640 h1         1 6V4       0.015950
     49 H7           1.5770    -3.5290    -2.6450 h1         1 6V4       0.015950
     50 H8          -1.7810    -2.4130    -4.8560 h1         1 6V4       0.015950
     51 H9          -1.9330    -2.7860    -3.1290 h1         1 6V4       0.015950
     52 H10          2.9830    -0.4320     3.6710 hn         1 6V4       0.189500
     53 H12         -0.5560    -0.3640    -4.3510 h1         1 6V4       0.043200
     54 H13         -2.0590    -0.3680    -3.4090 h1         1 6V4       0.043200
     55 H14          0.8340    -4.8570    -4.4360 h1         1 6V4       0.001367
     56 H15         -0.5700    -4.3770    -5.4000 h1         1 6V4       0.001367
     57 H16         -0.7900    -4.9420    -3.7380 h1         1 6V4       0.001367
     58 H17          0.7620     1.5250     7.2160 h4         1 6V4       0.178000
     59 H18          3.4650    -0.3890    -0.8250 h1         1 6V4       0.020700
     60 H19          5.1840     1.9050     0.1510 hc         1 6V4       0.014200
     61 H20          4.5980     1.5990    -1.4900 hc         1 6V4       0.014200
     62 H21          3.4690     2.1140    -0.2280 hc         1 6V4       0.014200
     63 H22          5.9110    -0.6550    -0.9710 hc         1 6V4       0.014200
     64 H23          5.2450    -1.7190     0.2760 hc         1 6V4       0.014200
     65 H24          6.0680    -0.2220     0.7370 hc         1 6V4       0.014200
     66 H25          5.9160    -0.8220     5.6010 ha         1 6V4       0.121000
     67 H26          8.2140    -1.4950     6.1740 ha         1 6V4       0.105000
     68 H27          9.0710    -1.1570     8.4570 ha         1 6V4       0.105000
     69 H28          5.3230     0.5490     9.6270 ha         1 6V4       0.152000
     70 H29          8.7230     0.0350    10.6260 hn         1 6V4       0.163500
     71 H30          8.2430     0.5260    12.8970 hn         1 6V4       0.160500
     72 H31          5.5910    -1.8850    13.0360 ha         1 6V4       0.121500
     73 H32          4.1470    -2.2730    14.9950 ha         1 6V4       0.103000
     74 H33          4.2790    -0.7700    16.9430 ha         1 6V4       0.103000
     75 H34          5.8540     1.1250    16.9390 ha         1 6V4       0.103000
     76 H35          7.3030     1.5220    14.9840 ha         1 6V4       0.121500
     77 H4           1.3060    -1.4860    -1.1940 h1         1 6V4       0.043200
@<TRIPOS>BOND
     1     1     2 ar  
     2     1     6 ar  
     3     1     7 1   
     4     2     3 ar  
     5     2    44 1   
     6     3     4 ar  
     7     3    13 1   
     8     4     5 ar  
     9     4    14 1   
    10     5     6 ar  
    11     5    45 1   
    12     6    46 1   
    13     7    11 2   
    14     7    12 1   
    15     8     9 1   
    16     8    12 1   
    17     8    47 1   
    18     8    77 1   
    19     9    15 1   
    20     9    48 1   
    21     9    49 1   
    22    10    15 1   
    23    10    16 1   
    24    10    50 1   
    25    10    51 1   
    26    12    16 1   
    27    13    26 1   
    28    14    18 1   
    29    14    52 1   
    30    15    17 1   
    31    16    53 1   
    32    16    54 1   
    33    17    55 1   
    34    17    56 1   
    35    17    57 1   
    36    18    19 1   
    37    18    20 2   
    38    19    22 2   
    39    19    24 1   
    40    21    22 1   
    41    21    23 1   
    42    22    58 1   
    43    23    24 2   
    44    23    25 1   
    45    25    29 ar  
    46    25    33 ar  
    47    26    27 1   
    48    26    28 1   
    49    26    59 1   
    50    27    60 1   
    51    27    61 1   
    52    27    62 1   
    53    28    63 1   
    54    28    64 1   
    55    28    65 1   
    56    29    30 ar  
    57    29    66 1   
    58    30    31 ar  
    59    30    67 1   
    60    31    32 ar  
    61    31    68 1   
    62    32    33 ar  
    63    32    34 1   
    64    33    69 1   
    65    34    35 1   
    66    34    70 1   
    67    35    36 1   
    68    35    37 2   
    69    36    38 1   
    70    36    71 1   
    71    38    39 ar  
    72    38    43 ar  
    73    39    40 ar  
    74    39    72 1   
    75    40    41 ar  
    76    40    73 1   
    77    41    42 ar  
    78    41    74 1   
    79    42    43 ar  
    80    42    75 1   
    81    43    76 1   
@<TRIPOS>SUBSTRUCTURE
     1 6V4         1 TEMP              0 ****  ****    0 ROOT
