@<TRIPOS>MOLECULE
6V5
   75    79     1     0     0
SMALL
bcc


@<TRIPOS>ATOM
      1 C1           0.0000     0.0000     0.0000 ca         1 6V5      -0.124600
      2 C2           1.3970     0.0000     0.0000 ca         1 6V5      -0.205000
      3 C3           2.0860     0.0000     1.1980 ca         1 6V5       0.115100
      4 C4           1.3850    -0.0000     2.4040 ca         1 6V5      -0.111400
      5 C5          -0.0050    -0.0010     2.4040 ca         1 6V5      -0.103000
      6 C6          -0.6960    -0.0000     1.2120 ca         1 6V5      -0.059000
      7 C7          -0.7400     0.0060    -1.2770 c          1 6V5       0.611700
      8 C12          4.0970     0.1160    -0.0670 c3         1 6V5       0.166100
      9 C13          5.4880     0.7240     0.1290 c3         1 6V5      -0.019600
     10 C14          4.2300    -1.2700    -0.7010 c3         1 6V5      -0.019600
     11 C15          0.9400    -1.5160    -2.2120 c3         1 6V5       0.025000
     12 O8          -1.7370     0.6910    -1.3980 o          1 6V5      -0.644100
     13 N9          -0.3110    -0.7490    -2.3070 n          1 6V5      -0.148800
     14 N10          2.0810     0.0000     3.6130 ns         1 6V5       0.011900
     15 O11          3.4460     0.0000     1.2000 os         1 6V5      -0.308900
     16 C16          0.6560    -2.9650    -2.6180 c3         1 6V5       0.139300
     17 N17          0.0150    -2.9840    -3.9390 n3         1 6V5      -0.546600
     18 C18         -1.2880    -2.3040    -3.9100 c3         1 6V5       0.139300
     19 C19         -1.0820    -0.8280    -3.5570 c3         1 6V5       0.025000
     20 C20         -0.1190    -4.3580    -4.4400 c3         1 6V5       0.189100
     21 C21          1.5110     0.5200     4.7190 c          1 6V5       0.494600
     22 C22          2.2750     0.5940     5.9760 cc         1 6V5       0.247800
     23 O23          0.3660     0.9270     4.6790 o          1 6V5      -0.643100
     24 N24          3.5280     0.1690     6.0730 nc         1 6V5      -0.557000
     25 C25          4.0790     0.2960     7.2420 cd         1 6V5       0.507900
     26 S26          2.9260     1.0220     8.3550 ss         1 6V5      -0.256300
     27 C27          1.7530     1.1050     7.1140 cd         1 6V5      -0.051400
     28 C28          5.4610    -0.1060     7.5840 ca         1 6V5      -0.141500
     29 C29          6.2870    -0.6700     6.6090 ca         1 6V5      -0.042000
     30 C30          7.5780    -1.0470     6.9270 ca         1 6V5      -0.112000
     31 C31          8.0590    -0.8700     8.2080 ca         1 6V5      -0.073000
     32 C32          7.2430    -0.3070     9.1920 ca         1 6V5      -0.160600
     33 C33          5.9430     0.0810     8.8770 ca         1 6V5      -0.020000
     34 C34          7.7600    -0.1190    10.5640 c          1 6V5       0.584700
     35 N35          9.0200    -0.4900    10.8660 ns         1 6V5      -0.034100
     36 O36          7.0490     0.3700    11.4200 o          1 6V5      -0.631100
     37 C37          9.4760    -0.4090    12.1870 ca         1 6V5      -0.090400
     38 C38          8.6040    -0.6530    13.2390 ca         1 6V5      -0.117500
     39 C39          9.0570    -0.5730    14.5420 ca         1 6V5      -0.081000
     40 C40         10.3770    -0.2490    14.7980 ca         1 6V5      -0.114000
     41 C41         11.2470    -0.0040    13.7510 ca         1 6V5      -0.081000
     42 C42         10.8020    -0.0890    12.4470 ca         1 6V5      -0.117500
     43 H1           1.9400     0.0000    -0.9380 ha         1 6V5       0.145000
     44 H2          -0.5460    -0.0010     3.3430 ha         1 6V5       0.168000
     45 H3          -1.7790    -0.0000     1.2140 ha         1 6V5       0.124000
     46 H4           3.5140     0.7500    -0.7240 h1         1 6V5       0.023700
     47 H5           6.0610     0.1030     0.8070 hc         1 6V5       0.014867
     48 H6           5.3910     1.7200     0.5460 hc         1 6V5       0.014867
     49 H7           5.9950     0.7800    -0.8260 hc         1 6V5       0.014867
     50 H8           5.2200    -1.6640    -0.5020 hc         1 6V5       0.014867
     51 H9           3.4860    -1.9340    -0.2780 hc         1 6V5       0.014867
     52 H10          4.0810    -1.1940    -1.7710 hc         1 6V5       0.014867
     53 H11          1.3060    -1.4890    -1.1930 h1         1 6V5       0.043700
     54 H12          1.6790    -1.0900    -2.8810 h1         1 6V5       0.043700
     55 H13          2.9850    -0.4260     3.6700 hn         1 6V5       0.189500
     56 H14         -0.0060    -3.4200    -1.8900 h1         1 6V5       0.015700
     57 H15          1.5870    -3.5170    -2.6610 h1         1 6V5       0.015700
     58 H17         -1.9200    -2.7690    -3.1630 h1         1 6V5       0.015700
     59 H18         -1.7550    -2.3800    -4.8840 h1         1 6V5       0.015700
     60 H19         -0.5340    -0.3370    -4.3530 h1         1 6V5       0.043700
     61 H20         -2.0440    -0.3490    -3.4210 h1         1 6V5       0.043700
     62 H21          0.8590    -4.8200    -4.4940 h1         1 6V5       0.001367
     63 H22         -0.5650    -4.3410    -5.4270 h1         1 6V5       0.001367
     64 H23         -0.7510    -4.9270    -3.7690 h1         1 6V5       0.001367
     65 H24          0.7500     1.4990     7.2220 h4         1 6V5       0.180000
     66 H25          5.9150    -0.8110     5.6010 ha         1 6V5       0.122000
     67 H26          8.2150    -1.4840     6.1670 ha         1 6V5       0.110000
     68 H27          9.0710    -1.1700     8.4510 ha         1 6V5       0.102000
     69 H28          5.3060     0.5180     9.6370 ha         1 6V5       0.138000
     70 H29          9.6520    -0.7520    10.1360 hn         1 6V5       0.171500
     71 H30          7.5700    -0.9070    13.0390 ha         1 6V5       0.120500
     72 H31          8.3770    -0.7640    15.3640 ha         1 6V5       0.103500
     73 H32         10.7290    -0.1840    15.8200 ha         1 6V5       0.103000
     74 H33         12.2810     0.2470    13.9550 ha         1 6V5       0.103500
     75 H34         11.4840     0.1030    11.6280 ha         1 6V5       0.120500
@<TRIPOS>BOND
     1     1     2 ar  
     2     1     6 ar  
     3     1     7 1   
     4     2     3 ar  
     5     2    43 1   
     6     3     4 ar  
     7     3    15 1   
     8     4     5 ar  
     9     4    14 1   
    10     5     6 ar  
    11     5    44 1   
    12     6    45 1   
    13     7    12 2   
    14     7    13 1   
    15     8     9 1   
    16     8    10 1   
    17     8    15 1   
    18     8    46 1   
    19     9    47 1   
    20     9    48 1   
    21     9    49 1   
    22    10    50 1   
    23    10    51 1   
    24    10    52 1   
    25    11    13 1   
    26    11    16 1   
    27    11    53 1   
    28    11    54 1   
    29    13    19 1   
    30    14    21 1   
    31    14    55 1   
    32    16    17 1   
    33    16    56 1   
    34    16    57 1   
    35    17    18 1   
    36    17    20 1   
    37    18    19 1   
    38    18    58 1   
    39    18    59 1   
    40    19    60 1   
    41    19    61 1   
    42    20    62 1   
    43    20    63 1   
    44    20    64 1   
    45    21    22 1   
    46    21    23 2   
    47    22    24 1   
    48    22    27 2   
    49    24    25 2   
    50    25    26 1   
    51    25    28 1   
    52    26    27 1   
    53    27    65 1   
    54    28    29 ar  
    55    28    33 ar  
    56    29    30 ar  
    57    29    66 1   
    58    30    31 ar  
    59    30    67 1   
    60    31    32 ar  
    61    31    68 1   
    62    32    33 ar  
    63    32    34 1   
    64    33    69 1   
    65    34    35 1   
    66    34    36 2   
    67    35    37 1   
    68    35    70 1   
    69    37    38 ar  
    70    37    42 ar  
    71    38    39 ar  
    72    38    71 1   
    73    39    40 ar  
    74    39    72 1   
    75    40    41 ar  
    76    40    73 1   
    77    41    42 ar  
    78    41    74 1   
    79    42    75 1   
@<TRIPOS>SUBSTRUCTURE
     1 6V5         1 TEMP              0 ****  ****    0 ROOT
