@<TRIPOS>MOLECULE
molecule
   75    79     1     0     0
SMALL
bcc


@<TRIPOS>ATOM
      1 C1           0.0000     0.0000     0.0000 ca         1 6V5      -0.127600
      2 C2           1.3970     0.0000     0.0000 ca         1 6V5      -0.197000
      3 C3           2.0860     0.0000     1.1980 ca         1 6V5       0.099100
      4 C4           1.3850    -0.0000     2.4040 ca         1 6V5       0.048600
      5 C5          -0.0050    -0.0010     2.4040 ca         1 6V5      -0.122000
      6 C6          -0.6960    -0.0000     1.2120 ca         1 6V5      -0.092000
      7 C7          -0.7400     0.0060    -1.2770 c          1 6V5       0.678700
      8 C12          4.0970     0.1160    -0.0670 c3         1 6V5       0.138100
      9 C13          5.4880     0.7240     0.1290 c3         1 6V5      -0.107100
     10 C14          4.2300    -1.2700    -0.7010 c3         1 6V5      -0.107100
     11 C15          0.9400    -1.5160    -2.2120 c3         1 6V5       0.097500
     12 O8          -1.7370     0.6910    -1.3980 o          1 6V5      -0.604100
     13 N9          -0.3110    -0.7490    -2.3070 n          1 6V5      -0.488800
     14 N10          2.0810     0.0000     3.6130 ns         1 6V5      -0.445100
     15 O11          3.4460     0.0000     1.2000 os         1 6V5      -0.334900
     16 C16          0.6560    -2.9650    -2.6180 c3         1 6V5       0.144800
     17 N17          0.0150    -2.9840    -3.9390 n3         1 6V5      -0.733600
     18 C18         -1.2880    -2.3040    -3.9100 c3         1 6V5       0.144800
     19 C19         -1.0820    -0.8280    -3.5570 c3         1 6V5       0.097500
     20 C20         -0.1190    -4.3580    -4.4400 c3         1 6V5       0.153100
     21 C21          1.5110     0.5200     4.7190 c          1 6V5       0.599600
     22 C22          2.2750     0.5940     5.9760 cc         1 6V5       0.303800
     23 O23          0.3660     0.9270     4.6790 o          1 6V5      -0.600100
     24 N24          3.5280     0.1690     6.0730 nc         1 6V5      -0.669000
     25 C25          4.0790     0.2960     7.2420 cd         1 6V5       0.504900
     26 S26          2.9260     1.0220     8.3550 ss         1 6V5      -0.136300
     27 C27          1.7530     1.1050     7.1140 cd         1 6V5      -0.142400
     28 C28          5.4610    -0.1060     7.5840 ca         1 6V5      -0.134500
     29 C29          6.2870    -0.6700     6.6090 ca         1 6V5      -0.063000
     30 C30          7.5780    -1.0470     6.9270 ca         1 6V5      -0.140000
     31 C31          8.0590    -0.8700     8.2080 ca         1 6V5      -0.094000
     32 C32          7.2430    -0.3070     9.1920 ca         1 6V5      -0.148600
     33 C33          5.9430     0.0810     8.8770 ca         1 6V5      -0.054000
     34 C34          7.7600    -0.1190    10.5640 c          1 6V5       0.675700
     35 N35          9.0200    -0.4900    10.8660 ns         1 6V5      -0.473100
     36 O36          7.0490     0.3700    11.4200 o          1 6V5      -0.590100
     37 C37          9.4760    -0.4090    12.1870 ca         1 6V5       0.056600
     38 C38          8.6040    -0.6530    13.2390 ca         1 6V5      -0.145000
     39 C39          9.0570    -0.5730    14.5420 ca         1 6V5      -0.110000
     40 C40         10.3770    -0.2490    14.7980 ca         1 6V5      -0.144000
     41 C41         11.2470    -0.0040    13.7510 ca         1 6V5      -0.110000
     42 C42         10.8020    -0.0890    12.4470 ca         1 6V5      -0.145000
     43 H1           1.9400     0.0000    -0.9380 ha         1 6V5       0.151000
     44 H2          -0.5460    -0.0010     3.3430 ha         1 6V5       0.188000
     45 H3          -1.7790    -0.0000     1.2140 ha         1 6V5       0.155000
     46 H4           3.5140     0.7500    -0.7240 h1         1 6V5       0.051700
     47 H5           6.0610     0.1030     0.8070 hc         1 6V5       0.047200
     48 H6           5.3910     1.7200     0.5460 hc         1 6V5       0.047200
     49 H7           5.9950     0.7800    -0.8260 hc         1 6V5       0.047200
     50 H8           5.2200    -1.6640    -0.5020 hc         1 6V5       0.047200
     51 H9           3.4860    -1.9340    -0.2780 hc         1 6V5       0.047200
     52 H10          4.0810    -1.1940    -1.7710 hc         1 6V5       0.047200
     53 H11          1.3060    -1.4890    -1.1930 h1         1 6V5       0.066450
     54 H12          1.6790    -1.0900    -2.8810 h1         1 6V5       0.066450
     55 H13          2.9850    -0.4260     3.6700 hn         1 6V5       0.351500
     56 H14         -0.0060    -3.4200    -1.8900 h1         1 6V5       0.041950
     57 H15          1.5870    -3.5170    -2.6610 h1         1 6V5       0.041950
     58 H17         -1.9200    -2.7690    -3.1630 h1         1 6V5       0.041950
     59 H18         -1.7550    -2.3800    -4.8840 h1         1 6V5       0.041950
     60 H19         -0.5340    -0.3370    -4.3530 h1         1 6V5       0.066450
     61 H20         -2.0440    -0.3490    -3.4210 h1         1 6V5       0.066450
     62 H21          0.8590    -4.8200    -4.4940 h1         1 6V5       0.033033
     63 H22         -0.5650    -4.3410    -5.4270 h1         1 6V5       0.033033
     64 H23         -0.7510    -4.9270    -3.7690 h1         1 6V5       0.033033
     65 H24          0.7500     1.4990     7.2220 h4         1 6V5       0.207000
     66 H25          5.9150    -0.8110     5.6010 ha         1 6V5       0.157000
     67 H26          8.2150    -1.4840     6.1670 ha         1 6V5       0.141000
     68 H27          9.0710    -1.1700     8.4510 ha         1 6V5       0.128000
     69 H28          5.3060     0.5180     9.6370 ha         1 6V5       0.161000
     70 H29          9.6520    -0.7520    10.1360 hn         1 6V5       0.324500
     71 H30          7.5700    -0.9070    13.0390 ha         1 6V5       0.143000
     72 H31          8.3770    -0.7640    15.3640 ha         1 6V5       0.132500
     73 H32         10.7290    -0.1840    15.8200 ha         1 6V5       0.130000
     74 H33         12.2810     0.2470    13.9550 ha         1 6V5       0.132500
     75 H34         11.4840     0.1030    11.6280 ha         1 6V5       0.143000
@<TRIPOS>BOND
     1    10     8 1   
     2    12     7 2   
     3     8     9 1   
     4     8    15 1   
     5     7    13 1   
     6     7     1 1   
     7     2     1 ar  
     8     2     3 ar  
     9    19    13 1   
    10    19    18 1   
    11    11    13 1   
    12    11    16 1   
    13     1     6 ar  
    14    15     3 1   
    15     3     4 ar  
    16    17    18 1   
    17    17    16 1   
    18    17    20 1   
    19     6     5 ar  
    20    30    29 ar  
    21    30    31 ar  
    22     4     5 ar  
    23     4    14 1   
    24    29    28 ar  
    25    31    32 ar  
    26    14    21 1   
    27    28    25 1   
    28    28    33 ar  
    29    24    25 2   
    30    24    22 1   
    31    32    33 ar  
    32    32    34 1   
    33    21    22 1   
    34    21    23 2   
    35    25    26 1   
    36    22    27 2   
    37    34    35 1   
    38    34    36 2   
    39    35    37 1   
    40    27    26 1   
    41    37    38 ar  
    42    37    42 ar  
    43    38    39 ar  
    44    42    41 ar  
    45    39    40 ar  
    46    41    40 ar  
    47     2    43 1   
    48     5    44 1   
    49     6    45 1   
    50     8    46 1   
    51     9    47 1   
    52     9    48 1   
    53     9    49 1   
    54    10    50 1   
    55    10    51 1   
    56    10    52 1   
    57    11    53 1   
    58    11    54 1   
    59    14    55 1   
    60    16    56 1   
    61    16    57 1   
    62    18    58 1   
    63    18    59 1   
    64    19    60 1   
    65    19    61 1   
    66    20    62 1   
    67    20    63 1   
    68    20    64 1   
    69    27    65 1   
    70    29    66 1   
    71    30    67 1   
    72    31    68 1   
    73    33    69 1   
    74    35    70 1   
    75    38    71 1   
    76    39    72 1   
    77    40    73 1   
    78    41    74 1   
    79    42    75 1   
@<TRIPOS>SUBSTRUCTURE
     1 6V5         1 TEMP              0 ****  ****    0 ROOT
