@<TRIPOS>MOLECULE
molecule
  121   120     1     0     0
SMALL
bcc


@<TRIPOS>ATOM
      1 C2           0.0000     0.0000     0.0000 c3         1 6V6       0.215400
      2 C3          -3.4800    -3.0930     2.4890 c3         1 6V6       0.237400
      3 O3          -2.7080    -0.2140     1.5450 o          1 6V6      -0.827500
      4 C4          -3.2790    -4.2740     3.4410 c3         1 6V6       0.144100
      5 C5          -4.6260    -4.6740     4.0460 c3         1 6V6       0.101400
      6 P1          -2.0420    -1.4120     0.9890 p5         1 6V6       1.366800
      7 C1           1.5300     0.0000     0.0000 c3         1 6V6       0.138100
      8 O1          -0.4760    -1.1040     0.7720 os         1 6V6      -0.583200
      9 O2          -2.7140    -1.7930    -0.4240 o          1 6V6      -0.827500
     10 O4          -2.2100    -2.6440     2.0130 os         1 6V6      -0.595200
     11 O5          -2.7350    -5.3800     2.7180 oh         1 6V6      -0.585800
     12 O6          -4.4230    -5.7000     5.0210 oh         1 6V6      -0.624800
     13 H1          -0.3610     0.9250     0.4320 h1         1 6V6       0.045200
     14 H2          -0.3610    -0.0890    -1.0170 h1         1 6V6       0.045200
     15 H3          -4.0910    -3.4040     1.6500 h1         1 6V6       0.039700
     16 H4          -3.9740    -2.2850     3.0150 h1         1 6V6       0.039700
     17 H5          -2.5970    -3.9890     4.2320 h1         1 6V6       0.040700
     18 H6          -5.0800    -3.8120     4.5190 h1         1 6V6       0.029200
     19 H7          -5.2780    -5.0430     3.2640 h1         1 6V6       0.029200
     20 H12         -2.3330    -5.9830     3.3210 ho         1 6V6       0.392000
     21 H13         -5.2570    -5.9870     5.3540 ho         1 6V6       0.394000
     22 C6           2.0400     0.0000     1.4420 c3         1 6V6       0.161400
     23 O7           2.0140    -1.1850    -0.6840 os         1 6V6      -0.398900
     24 O9           1.4610    -1.1220     2.1600 os         1 6V6      -0.355900
     25 C8           1.8100    -1.2650     3.4480 c          1 6V6       0.633100
     26 C9           1.2490    -2.4060     4.2570 c3         1 6V6      -0.127400
     27 C10          1.8010    -2.3410     5.6830 c3         1 6V6      -0.072400
     28 C11          1.2320    -3.4990     6.5040 c3         1 6V6      -0.084400
     29 C12          1.7860    -3.4340     7.9300 c3         1 6V6      -0.080400
     30 C13          1.2170    -4.5920     8.7510 c3         1 6V6      -0.082400
     31 C14          1.7690    -4.5270    10.1760 c3         1 6V6      -0.081400
     32 C15          1.1990    -5.6850    10.9980 c3         1 6V6      -0.082400
     33 C16          1.7520    -5.6190    12.4230 c3         1 6V6      -0.082400
     34 C17          1.1830    -6.7780    13.2450 c3         1 6V6      -0.082400
     35 C18          1.7350    -6.7120    14.6690 c3         1 6V6      -0.082400
     36 C19          1.1660    -7.8710    15.4920 c3         1 6V6      -0.082400
     37 C20          1.7200    -7.8050    16.9160 c3         1 6V6      -0.082400
     38 C21          1.1500    -8.9640    17.7380 c3         1 6V6      -0.082400
     39 C22          1.7030    -8.8980    19.1630 c3         1 6V6      -0.084400
     40 C23          1.1340   -10.0570    19.9850 c3         1 6V6      -0.092100
     41 O8           2.5730    -0.4810     3.9590 o          1 6V6      -0.593000
     42 C24          2.2160    -1.0840    -2.0080 c          1 6V6       0.636100
     43 O10          1.9970    -0.0400    -2.5750 o          1 6V6      -0.571000
     44 C25          2.7190    -2.2730    -2.7850 c3         1 6V6      -0.127400
     45 C26          2.8630    -1.8940    -4.2610 c3         1 6V6      -0.072400
     46 C27          3.3720    -3.1000    -5.0510 c3         1 6V6      -0.084400
     47 C28          3.5170    -2.7210    -6.5260 c3         1 6V6      -0.079400
     48 C29          4.0260    -3.9280    -7.3160 c3         1 6V6      -0.083400
     49 C30          4.1700    -3.5490    -8.7910 c3         1 6V6      -0.077400
     50 C31          4.6800    -4.7560    -9.5810 c3         1 6V6      -0.049200
     51 C32          4.8220    -4.3820   -11.0340 c2         1 6V6      -0.168200
     52 C33          5.9680    -4.5520   -11.6450 c2         1 6V6      -0.185200
     53 C34          6.1110    -4.1780   -13.0980 c3         1 6V6      -0.046200
     54 C35          7.2790    -3.2040   -13.2620 c3         1 6V6      -0.077400
     55 C36          7.4230    -2.8240   -14.7360 c3         1 6V6      -0.083400
     56 C37          8.5910    -1.8500   -14.9010 c3         1 6V6      -0.081400
     57 C38          8.7360    -1.4710   -16.3750 c3         1 6V6      -0.084400
     58 C39          9.9040    -0.4970   -16.5390 c3         1 6V6      -0.092100
     59 H9           3.1190    -0.0890     1.4430 h1         1 6V6       0.047200
     60 H10          1.7530     0.9260     1.9270 h1         1 6V6       0.047200
     61 H16          0.1690    -2.3320     4.2850 hc         1 6V6       0.081700
     62 H17          1.5350    -3.3470     3.8020 hc         1 6V6       0.081700
     63 H18          1.5150    -1.4010     6.1380 hc         1 6V6       0.051700
     64 H19          2.8820    -2.4150     5.6550 hc         1 6V6       0.051700
     65 H20          0.1520    -3.4250     6.5320 hc         1 6V6       0.043700
     66 H21          1.5180    -4.4400     6.0480 hc         1 6V6       0.043700
     67 H22          1.5000    -2.4940     8.3850 hc         1 6V6       0.040200
     68 H23          2.8660    -3.5080     7.9010 hc         1 6V6       0.040200
     69 H24          1.5030    -5.5320     8.2950 hc         1 6V6       0.041700
     70 H25          0.1360    -4.5180     8.7780 hc         1 6V6       0.041700
     71 H26          1.4830    -3.5870    10.6310 hc         1 6V6       0.039700
     72 H27          2.8490    -4.6010    10.1480 hc         1 6V6       0.039700
     73 H28          1.4850    -6.6260    10.5430 hc         1 6V6       0.041700
     74 H29          0.1190    -5.6110    11.0260 hc         1 6V6       0.041700
     75 H30          2.8330    -5.6930    12.3950 hc         1 6V6       0.040200
     76 H31          1.4660    -4.6790    12.8780 hc         1 6V6       0.040200
     77 H32          0.1030    -6.7040    13.2730 hc         1 6V6       0.041200
     78 H33          1.4690    -7.7180    12.7900 hc         1 6V6       0.041200
     79 H34          2.8160    -6.7870    14.6410 hc         1 6V6       0.040200
     80 H35          1.4500    -5.7720    15.1250 hc         1 6V6       0.040200
     81 H36          0.0860    -7.7970    15.5200 hc         1 6V6       0.040700
     82 H37          1.4510    -8.8110    15.0360 hc         1 6V6       0.040700
     83 H38          2.8000    -7.8790    16.8880 hc         1 6V6       0.040700
     84 H39          1.4340    -6.8650    17.3720 hc         1 6V6       0.040700
     85 H40          0.0700    -8.8910    17.7660 hc         1 6V6       0.040700
     86 H41          1.4360    -9.9050    17.2830 hc         1 6V6       0.040700
     87 H42          2.7830    -8.9720    19.1350 hc         1 6V6       0.039200
     88 H43          1.4170    -7.9580    19.6180 hc         1 6V6       0.039200
     89 H44          1.4040   -10.9970    19.5190 hc         1 6V6       0.031700
     90 H45          0.0540    -9.9720    20.0290 hc         1 6V6       0.031700
     91 H46          1.5400   -10.0210    20.9890 hc         1 6V6       0.031700
     92 H47          2.0140    -3.0910    -2.6900 hc         1 6V6       0.071700
     93 H48          3.6820    -2.5790    -2.3950 hc         1 6V6       0.071700
     94 H49          1.8990    -1.5880    -4.6510 hc         1 6V6       0.057700
     95 H50          3.5670    -1.0760    -4.3570 hc         1 6V6       0.057700
     96 H51          4.3350    -3.4060    -4.6610 hc         1 6V6       0.039700
     97 H52          2.6680    -3.9180    -4.9560 hc         1 6V6       0.039700
     98 H53          4.2210    -1.9040    -6.6210 hc         1 6V6       0.043700
     99 H54          2.5540    -2.4150    -6.9160 hc         1 6V6       0.043700
    100 H55          3.3220    -4.7460    -7.2200 hc         1 6V6       0.040200
    101 H56          4.9900    -4.2340    -6.9260 hc         1 6V6       0.040200
    102 H57          4.8740    -2.7310    -8.8860 hc         1 6V6       0.043200
    103 H58          3.2070    -3.2430    -9.1800 hc         1 6V6       0.043200
    104 H59          3.9760    -5.5740    -9.4860 hc         1 6V6       0.045700
    105 H60          5.6440    -5.0620    -9.1910 hc         1 6V6       0.045700
    106 H61          3.9760    -3.9720   -11.5730 ha         1 6V6       0.124000
    107 H62          6.8140    -4.9620   -11.1050 ha         1 6V6       0.123000
    108 H63          6.2990    -5.0700   -13.6830 hc         1 6V6       0.044200
    109 H64          5.1970    -3.7080   -13.4410 hc         1 6V6       0.044200
    110 H65          7.0910    -2.3130   -12.6760 hc         1 6V6       0.043700
    111 H66          8.1930    -3.6750   -12.9190 hc         1 6V6       0.043700
    112 H67          7.6110    -3.7160   -15.3220 hc         1 6V6       0.039700
    113 H68          6.5100    -2.3540   -15.0790 hc         1 6V6       0.039700
    114 H69          8.4030    -0.9590   -14.3150 hc         1 6V6       0.041700
    115 H70          9.5050    -2.3210   -14.5580 hc         1 6V6       0.041700
    116 H71          8.9250    -2.3620   -16.9610 hc         1 6V6       0.039200
    117 H72          7.8230    -1.0000   -16.7180 hc         1 6V6       0.039200
    118 H73         10.8090    -0.9500   -16.1530 hc         1 6V6       0.031700
    119 H74         10.0360    -0.2650   -17.5890 hc         1 6V6       0.031700
    120 H75          9.6950     0.4140   -15.9920 hc         1 6V6       0.031700
    121 H8           1.8910     0.8850    -0.5100 h1         1 6V6       0.070700
@<TRIPOS>BOND
     1    12     5 1
     2     5     4 1
     3     4     2 1
     4     4    11 1
     5     2    10 1
     6     7     1 1
     7     8     1 1
     8     8     6 1
     9    10     6 1
    10     6     3 1
    11     6     9 1
    12     1    13 1
    13     1    14 1
    14     2    15 1
    15     2    16 1
    16     4    17 1
    17     5    18 1
    18     5    19 1
    19    11    20 1
    20    12    21 1
    21     7    22 1
    22     7    23 1
    23    22    24 1
    24    24    25 1
    25    25    26 1
    26    26    27 1
    27    27    28 1
    28    28    29 1
    29    29    30 1
    30    30    31 1
    31    31    32 1
    32    32    33 1
    33    33    34 1
    34    34    35 1
    35    35    36 1
    36    36    37 1
    37    37    38 1
    38    38    39 1
    39    39    40 1
    40    25    41 2
    41    23    42 1
    42    42    43 2
    43    42    44 1
    44    44    45 1
    45    45    46 1
    46    46    47 1
    47    47    48 1
    48    48    49 1
    49    49    50 1
    50    50    51 1
    51    51    52 2
    52    52    53 1
    53    53    54 1
    54    54    55 1
    55    55    56 1
    56    56    57 1
    57    57    58 1
    58    22    59 1
    59    22    60 1
    60    26    61 1
    61    26    62 1
    62    27    63 1
    63    27    64 1
    64    28    65 1
    65    28    66 1
    66    29    67 1
    67    29    68 1
    68    30    69 1
    69    30    70 1
    70    31    71 1
    71    31    72 1
    72    32    73 1
    73    32    74 1
    74    33    75 1
    75    33    76 1
    76    34    77 1
    77    34    78 1
    78    35    79 1
    79    35    80 1
    80    36    81 1
    81    36    82 1
    82    37    83 1
    83    37    84 1
    84    38    85 1
    85    38    86 1
    86    39    87 1
    87    39    88 1
    88    40    89 1
    89    40    90 1
    90    40    91 1
    91    44    92 1
    92    44    93 1
    93    45    94 1
    94    45    95 1
    95    46    96 1
    96    46    97 1
    97    47    98 1
    98    47    99 1
    99    48   100 1
   100    48   101 1
   101    49   102 1
   102    49   103 1
   103    50   104 1
   104    50   105 1
   105    51   106 1
   106    52   107 1
   107    53   108 1
   108    53   109 1
   109    54   110 1
   110    54   111 1
   111    55   112 1
   112    55   113 1
   113    56   114 1
   114    56   115 1
   115    57   116 1
   116    57   117 1
   117    58   118 1
   118    58   119 1
   119    58   120 1
   120     7   121 1
@<TRIPOS>SUBSTRUCTURE
     1 6V6         1 TEMP              0 ****  ****    0 ROOT
