@<TRIPOS>MOLECULE
6VA
   35    35     1     0     0
SMALL
bcc


@<TRIPOS>ATOM
      1 N3           0.0000     0.0000     0.0000 nz         1 6VA      -0.035600
      2 C14          1.9790     0.0000     1.4420 c3         1 6VA       0.027900
      3 C15          1.5810     1.2880     2.1160 ca         1 6VA      -0.133300
      4 C16          2.4190     2.3860     2.0580 ca         1 6VA      -0.144000
      5 C17          2.0500     3.5690     2.6720 ca         1 6VA      -0.068000
      6 C18          0.8450     3.6530     3.3430 ca         1 6VA      -0.074000
      7 C19          0.0080     2.5550     3.4000 ca         1 6VA      -0.068000
      8 C20          0.3750     1.3730     2.7870 ca         1 6VA      -0.144000
      9 C22          1.4700    -1.2480    -2.1650 c3         1 6VA       0.112800
     10 C24          1.9360     0.0280    -2.8690 c3         1 6VA      -0.038100
     11 C13          1.4690     0.0000     0.0000 c3         1 6VA      -0.075500
     12 C23          2.0240    -2.4680    -2.9020 c3         1 6VA      -0.038100
     13 C21          1.9790    -1.2490    -0.7220 c3         1 6VA       0.133100
     14 O5           1.5010    -2.4160    -0.0490 oh         1 6VA      -0.593800
     15 H1          -0.3340     0.0620    -0.9420 hn         1 6VA       0.257467
     16 H2          -0.3340    -0.8460     0.4180 hn         1 6VA       0.257467
     17 H4           3.0590    -0.0890     1.4440 hc         1 6VA       0.054200
     18 H5           1.5470    -0.8370     1.9780 hc         1 6VA       0.054200
     19 H6           3.3820     2.3080     1.5690 ha         1 6VA       0.128500
     20 H7           2.7060     4.4300     2.6270 ha         1 6VA       0.120500
     21 H8           0.5550     4.5810     3.8200 ha         1 6VA       0.123000
     22 H9          -0.9400     2.6240     3.9200 ha         1 6VA       0.120500
     23 H10         -0.1830     0.6460     3.3650 ha         1 6VA       0.128500
     24 H11          2.8100     0.4200    -2.3650 hc         1 6VA       0.039367
     25 H12          2.1840    -0.1990    -3.8990 hc         1 6VA       0.039367
     26 H13          1.1420     0.7650    -2.8430 hc         1 6VA       0.039367
     27 H14          1.8300     0.8850    -0.5110 hx         1 6VA       0.103700
     28 H15          2.6180    -1.5900    -3.1200 hc         1 6VA       0.039367
     29 H16          1.4130    -2.8240    -3.7230 hc         1 6VA       0.039367
     30 H17          2.5080    -3.2040    -2.2710 hc         1 6VA       0.039367
     31 H18          3.0620    -1.2500    -0.7210 h1         1 6VA       0.060700
     32 H19         -0.2220    -1.2720    -1.2610 ho         1 6VA       0.356000
     33 H20          2.2310    -2.9660     0.1830 ho         1 6VA       0.441000
     34 H33         -0.3340     0.7880     0.5190 hn         1 6VA       0.257467
     35 O6           0.0410    -1.2980    -2.1660 oh         1 6VA      -0.562800
@<TRIPOS>BOND
     1     1    11 1   
     2     1    15 1   
     3     1    16 1   
     4     1    34 1   
     5     2     3 1   
     6     2    11 1   
     7     2    17 1   
     8     2    18 1   
     9     3     4 ar  
    10     3     8 ar  
    11     4     5 ar  
    12     4    19 1   
    13     5     6 ar  
    14     5    20 1   
    15     6     7 ar  
    16     6    21 1   
    17     7     8 ar  
    18     7    22 1   
    19     8    23 1   
    20     9    10 1   
    21     9    12 1   
    22     9    13 1   
    23     9    35 1   
    24    10    24 1   
    25    10    25 1   
    26    10    26 1   
    27    11    13 1   
    28    11    27 1   
    29    12    28 1   
    30    12    29 1   
    31    12    30 1   
    32    13    14 1   
    33    13    31 1   
    34    14    33 1   
    35    32    35 1   
@<TRIPOS>SUBSTRUCTURE
     1 6VA         1 TEMP              0 ****  ****    0 ROOT
