@<TRIPOS>MOLECULE
molecule
   35    35     1     0     0
SMALL
bcc


@<TRIPOS>ATOM
      1 N3           0.0000     0.0000     0.0000 nz         1 6VA      -0.836600
      2 C14          1.9790     0.0000     1.4420 c3         1 6VA      -0.053100
      3 C15          1.5810     1.2880     2.1160 ca         1 6VA      -0.122300
      4 C16          2.4190     2.3860     2.0580 ca         1 6VA      -0.166500
      5 C17          2.0500     3.5690     2.6720 ca         1 6VA      -0.104500
      6 C18          0.8450     3.6530     3.3430 ca         1 6VA      -0.107000
      7 C19          0.0080     2.5550     3.4000 ca         1 6VA      -0.104500
      8 C20          0.3750     1.3730     2.7870 ca         1 6VA      -0.166500
      9 C22          1.4700    -1.2480    -2.1650 c3         1 6VA       0.101800
     10 C24          1.9360     0.0280    -2.8690 c3         1 6VA      -0.117600
     11 C13          1.4690     0.0000     0.0000 c3         1 6VA       0.100500
     12 C23          2.0240    -2.4680    -2.9020 c3         1 6VA      -0.117600
     13 C21          1.9790    -1.2490    -0.7220 c3         1 6VA       0.085100
     14 O5           1.5010    -2.4160    -0.0490 oh         1 6VA      -0.610800
     15 H1          -0.3340     0.0620    -0.9420 hn         1 6VA       0.467467
     16 H2          -0.3340    -0.8460     0.4180 hn         1 6VA       0.467467
     17 H4           3.0590    -0.0890     1.4440 hc         1 6VA       0.089200
     18 H5           1.5470    -0.8370     1.9780 hc         1 6VA       0.089200
     19 H6           3.3820     2.3080     1.5690 ha         1 6VA       0.151000
     20 H7           2.7060     4.4300     2.6270 ha         1 6VA       0.152500
     21 H8           0.5550     4.5810     3.8200 ha         1 6VA       0.155000
     22 H9          -0.9400     2.6240     3.9200 ha         1 6VA       0.152500
     23 H10         -0.1830     0.6460     3.3650 ha         1 6VA       0.151000
     24 H11          2.8100     0.4200    -2.3650 hc         1 6VA       0.070033
     25 H12          2.1840    -0.1990    -3.8990 hc         1 6VA       0.070033
     26 H13          1.1420     0.7650    -2.8430 hc         1 6VA       0.070033
     27 H14          1.8300     0.8850    -0.5110 hx         1 6VA       0.123700
     28 H15          2.6180    -1.5900    -3.1200 hc         1 6VA       0.070033
     29 H16          1.4130    -2.8240    -3.7230 hc         1 6VA       0.070033
     30 H17          2.5080    -3.2040    -2.2710 hc         1 6VA       0.070033
     31 H18          3.0620    -1.2500    -0.7210 h1         1 6VA       0.096700
     32 H19         -0.2220    -1.2720    -1.2610 ho         1 6VA       0.368000
     33 H20          2.2310    -2.9660     0.1830 ho         1 6VA       0.449000
     34 H33         -0.3340     0.7880     0.5190 hn         1 6VA       0.467467
     35 O6           0.0410    -1.2980    -2.1660 oh         1 6VA      -0.580800
@<TRIPOS>BOND
     1     5     6 ar  
     2     5     4 ar  
     3     6     7 ar  
     4     4     3 ar  
     5     7     8 ar  
     6     3     8 ar  
     7     3     2 1   
     8     2    11 1   
     9    11     1 1   
    10    11    13 1   
    11    14    13 1   
    12    13     9 1   
    13     9    35 1   
    14     9    10 1   
    15     9    12 1   
    16     1    15 1   
    17     1    16 1   
    18     2    17 1   
    19     2    18 1   
    20     4    19 1   
    21     5    20 1   
    22     6    21 1   
    23     7    22 1   
    24     8    23 1   
    25    10    24 1   
    26    10    25 1   
    27    10    26 1   
    28    11    27 1   
    29    12    28 1   
    30    12    29 1   
    31    12    30 1   
    32    13    31 1   
    33    35    32 1   
    34    14    33 1   
    35    34     1 1   
@<TRIPOS>SUBSTRUCTURE
     1 6VA         1 TEMP              0 ****  ****    0 ROOT
