@<TRIPOS>MOLECULE
molecule
   68    67     1     0     0
SMALL
bcc


@<TRIPOS>ATOM
      1 C5           0.0000     0.0000     0.0000 c3         1 6VC      -0.155400
      2 C6           1.5310     0.0000     0.0000 c3         1 6VC      -0.066400
      3 C8          -0.5020     0.0000     1.4200 c          1 6VC       0.658100
      4 O2           0.2860     0.0000     2.3420 o          1 6VC      -0.626100
      5 N2          -1.8270     0.0000     1.6660 ns         1 6VC      -0.564900
      6 C9          -2.3160    -0.0000     3.0480 c3         1 6VC       0.046700
      7 C10         -2.3680     1.4370     3.5700 c3         1 6VC       0.126400
      8 O3          -3.3360     2.1800     2.8270 oh         1 6VC      -0.600800
      9 C12         -3.6970    -0.6000     3.0920 c          1 6VC       0.667100
     10 O4          -4.2220    -0.9900     2.0700 o          1 6VC      -0.631100
     11 N3          -4.3490    -0.7050     4.2660 ns         1 6VC      -0.545900
     12 C13         -5.6920    -1.2880     4.3090 c3         1 6VC       0.113700
     13 C21         -6.4420    -0.7550     5.5330 c3         1 6VC       0.134100
     14 C22         -6.5970     0.7620     5.4130 c3         1 6VC       0.144800
     15 C23         -7.4610     1.2790     6.5660 c3         1 6VC      -0.130100
     16 O6          -5.3090     1.3790     5.4710 oh         1 6VC      -0.582800
     17 C24         -7.2670     1.1040     4.0810 c3         1 6VC       0.126400
     18 O5          -5.7050    -1.0670     6.7160 oh         1 6VC      -0.595800
     19 C14         -5.5840    -2.8120     4.4020 c3         1 6VC      -0.095400
     20 C15         -4.9460    -3.3570     3.1230 c3         1 6VC      -0.072700
     21 C16         -4.7240    -4.8630     3.2650 c3         1 6VC      -0.088600
     22 C20         -5.8750    -3.0890     1.9360 c3         1 6VC      -0.088600
     23 C1           2.0410     0.0010    -1.4430 c3         1 6VC      -0.086400
     24 C2           3.5700     0.0010    -1.4430 c3         1 6VC      -0.074400
     25 C3           4.0810     0.0000    -2.8850 c3         1 6VC      -0.077700
     26 C4           3.6760     1.3080    -3.5690 c3         1 6VC      -0.087600
     27 C7           5.6060    -0.1260    -2.8870 c3         1 6VC      -0.087600
     28 O8          -7.4120     2.5210     3.9700 oh         1 6VC      -0.603800
     29 H1          -0.3610     0.8850    -0.5110 hc         1 6VC       0.061700
     30 H2          -0.3610    -0.8850    -0.5110 hc         1 6VC       0.061700
     31 H3           1.8920    -0.8850     0.5100 hc         1 6VC       0.056700
     32 H4           1.8920     0.8840     0.5110 hc         1 6VC       0.056700
     33 H5          -2.4770     0.0410     0.9060 hn         1 6VC       0.340500
     34 H6          -1.6470    -0.5860     3.6670 h1         1 6VC       0.098700
     35 H7          -2.6430     1.4310     4.6180 h1         1 6VC       0.040700
     36 H8          -1.3940     1.8980     3.4550 h1         1 6VC       0.040700
     37 H9          -3.1030     3.0930     2.8330 ho         1 6VC       0.403000
     38 H10         -3.9080    -0.4030     5.1120 hn         1 6VC       0.339500
     39 H11         -6.2320    -1.0190     3.4090 h1         1 6VC       0.084700
     40 H12         -7.4210    -1.2160     5.5850 h1         1 6VC       0.045700
     41 H13         -8.4260     0.7870     6.5420 hc         1 6VC       0.049033
     42 H14         -7.5990     2.3480     6.4630 hc         1 6VC       0.049033
     43 H15         -6.9710     1.0660     7.5080 hc         1 6VC       0.049033
     44 H16         -5.3300     2.0950     6.0850 ho         1 6VC       0.408000
     45 H17         -8.2440     0.6370     4.0390 h1         1 6VC       0.038200
     46 H18         -6.6560     0.7380     3.2650 h1         1 6VC       0.038200
     47 H19         -6.2660    -1.5150     7.3270 ho         1 6VC       0.403000
     48 H20         -6.5730    -3.2370     4.5220 hc         1 6VC       0.045200
     49 H21         -4.9700    -3.0790     5.2540 hc         1 6VC       0.045200
     50 H22         -3.9960    -2.8650     2.9560 hc         1 6VC       0.068700
     51 H23         -4.0390    -5.0510     4.0830 hc         1 6VC       0.033700
     52 H24         -4.3050    -5.2550     2.3460 hc         1 6VC       0.033700
     53 H25         -5.6690    -5.3510     3.4670 hc         1 6VC       0.033700
     54 H26         -5.9350    -2.0220     1.7580 hc         1 6VC       0.033700
     55 H27         -5.4850    -3.5810     1.0540 hc         1 6VC       0.033700
     56 H28         -6.8630    -3.4730     2.1570 hc         1 6VC       0.033700
     57 H29          1.6800     0.8850    -1.9530 hc         1 6VC       0.040200
     58 H30          1.6800    -0.8840    -1.9540 hc         1 6VC       0.040200
     59 H31          3.9310    -0.8840    -0.9320 hc         1 6VC       0.044200
     60 H32          3.9310     0.8850    -0.9320 hc         1 6VC       0.044200
     61 H33          3.6490    -0.8360    -3.4210 hc         1 6VC       0.048700
     62 H34          2.6490     1.2360    -3.9070 hc         1 6VC       0.033200
     63 H35          4.3230     1.4870    -4.4190 hc         1 6VC       0.033200
     64 H36          3.7680     2.1270    -2.8660 hc         1 6VC       0.033200
     65 H37          5.9640    -0.1610    -3.9080 hc         1 6VC       0.033200
     66 H38          5.8940    -1.0340    -2.3710 hc         1 6VC       0.033200
     67 H39          6.0400     0.7290    -2.3820 hc         1 6VC       0.033200
     68 H40         -8.1110     2.7190     3.3690 ho         1 6VC       0.403000
@<TRIPOS>BOND
     1    21    20 1   
     2    27    25 1   
     3    26    25 1   
     4    20    22 1   
     5    20    19 1   
     6    25    24 1   
     7     4     3 2   
     8     2    23 1   
     9     2     1 1   
    10    19    12 1   
    11    24    23 1   
    12     3     1 1   
    13     3     5 1   
    14    11    12 1   
    15    11     9 1   
    16    12    13 1   
    17     5     6 1   
    18     6     9 1   
    19     6     7 1   
    20     9    10 2   
    21    18    13 1   
    22    13    14 1   
    23     8     7 1   
    24    14    16 1   
    25    14    17 1   
    26    14    15 1   
    27    17    28 1   
    28     1    29 1   
    29     1    30 1   
    30     2    31 1   
    31     2    32 1   
    32     5    33 1   
    33     6    34 1   
    34     7    35 1   
    35     7    36 1   
    36     8    37 1   
    37    11    38 1   
    38    12    39 1   
    39    13    40 1   
    40    15    41 1   
    41    15    42 1   
    42    15    43 1   
    43    16    44 1   
    44    17    45 1   
    45    17    46 1   
    46    18    47 1   
    47    19    48 1   
    48    19    49 1   
    49    20    50 1   
    50    21    51 1   
    51    21    52 1   
    52    21    53 1   
    53    22    54 1   
    54    22    55 1   
    55    22    56 1   
    56    23    57 1   
    57    23    58 1   
    58    24    59 1   
    59    24    60 1   
    60    25    61 1   
    61    26    62 1   
    62    26    63 1   
    63    26    64 1   
    64    27    65 1   
    65    27    66 1   
    66    27    67 1   
    67    28    68 1   
@<TRIPOS>SUBSTRUCTURE
     1 6VC         1 TEMP              0 ****  ****    0 ROOT
