@<TRIPOS>MOLECULE
molecule
   24    25     1     0     0
SMALL
bcc


@<TRIPOS>ATOM
      1 C1           0.0000     0.0000     0.0000 ca         1 6VD      -0.139000
      2 C2           1.3930     0.0000     0.0000 ca         1 6VD      -0.111000
      3 C3          -0.6970     0.0000     1.1700 ca         1 6VD      -0.093000
      4 C4           2.0950     0.0000     1.1660 ca         1 6VD      -0.174300
      5 C5          -0.0060     0.0010     2.3900 ca         1 6VD      -0.178300
      6 C6           1.4090     0.0010     2.3930 ca         1 6VD       0.441600
      7 C7           0.0590     0.0010     4.7850 ca         1 6VD      -0.313300
      8 C8          -0.6930     0.0010     3.6250 ca         1 6VD       0.166100
      9 C9           1.4470     0.0010     4.7070 ca         1 6VD       0.461600
     10 C10          3.2260    -1.1810     5.9680 c3         1 6VD      -0.084100
     11 C11          2.2530     0.0000     5.9800 c3         1 6VD      -0.130700
     12 N12          2.0740     0.0010     3.5540 nb         1 6VD      -0.699000
     13 O13         -2.0480     0.0020     3.6710 oh         1 6VD      -0.510100
     14 H1          -0.5350    -0.0000    -0.9420 ha         1 6VD       0.132000
     15 H2           1.9260    -0.0000    -0.9430 ha         1 6VD       0.132000
     16 H3          -1.7810     0.0000     1.1580 ha         1 6VD       0.145000
     17 H4           3.1780     0.0000     1.1490 ha         1 6VD       0.149000
     18 H7          -0.4290     0.0950     5.7470 ha         1 6VD       0.145000
     19 H13         -2.3490    -0.7750     4.1130 ho         1 6VD       0.429000
     20 H111         1.5860    -0.0890     6.8290 hc         1 6VD       0.054700
     21 H112         2.8100     0.9260     6.0540 hc         1 6VD       0.054700
     22 H101         2.6920    -2.0860     5.7000 hc         1 6VD       0.039700
     23 H102         4.0100    -0.9970     5.2430 hc         1 6VD       0.039700
     24 H103         3.6640    -1.2990     6.9520 hc         1 6VD       0.039700
@<TRIPOS>BOND
     1     1     2 ar
     2     1     3 ar
     3     2     4 ar
     4     3     5 ar
     5     4     6 ar
     6     5     6 ar
     7     5     8 ar
     8     6    12 ar
     9     7     8 ar
    10     7     9 ar
    11     8    13 1
    12     9    11 1
    13     9    12 ar
    14    10    11 1
    15     1    14 1
    16     2    15 1
    17     3    16 1
    18     4    17 1
    19     7    18 1
    20    13    19 1
    21    11    20 1
    22    11    21 1
    23    10    22 1
    24    10    23 1
    25    10    24 1
@<TRIPOS>SUBSTRUCTURE
     1 6VD         1 TEMP              0 ****  ****    0 ROOT
