@<TRIPOS>MOLECULE
6VF
   30    30     1     0     0
SMALL
bcc


@<TRIPOS>ATOM
      1 C2           0.0000     0.0000     0.0000 ca         1 6VF      -0.200300
      2 C4           1.3830     0.0000     0.0000 ca         1 6VF      -0.079000
      3 C12         -0.0080     0.0060     2.3950 ca         1 6VF      -0.117500
      4 C20         -0.7510    -0.0060    -1.3070 c3         1 6VF       0.029900
      5 C21         -0.6940     0.0000     1.1950 ca         1 6VF      -0.079000
      6 C22         -1.9230     2.8710    -3.5820 c3         1 6VF       0.202400
      7 C1          -1.6630     1.4300    -3.1370 c3         1 6VF       0.129100
      8 O2          -2.9000     0.7180    -3.0790 oh         1 6VF      -0.573800
      9 C3          -1.0110     1.4350    -1.7520 c3         1 6VF      -0.081500
     10 N4          -1.9080     2.0900    -0.7910 nz         1 6VF      -0.044600
     11 C7           2.0740     0.0000     1.1970 ca         1 6VF      -0.117500
     12 C10          1.3800    -0.0000     2.3970 ca         1 6VF       0.169100
     13 O1           2.0570     0.0000     3.5760 oh         1 6VF      -0.491100
     14 H1           1.9250     0.0000    -0.9380 ha         1 6VF       0.106000
     15 H2          -0.5520     0.0060     3.3310 ha         1 6VF       0.133000
     16 H3          -1.6960    -0.5200    -1.1770 hc         1 6VF       0.057700
     17 H4          -0.1630    -0.5160    -2.0590 hc         1 6VF       0.057700
     18 H5          -1.7770     0.0030     1.1920 ha         1 6VF       0.106000
     19 H7          -0.9980     3.4340    -3.5420 h1         1 6VF      -0.010300
     20 H8          -1.0010     0.9470    -3.8450 h1         1 6VF       0.058700
     21 H9          -2.3380     0.2840    -3.7000 ho         1 6VF       0.449000
     22 H10         -0.0730     1.9740    -1.7960 hx         1 6VF       0.094700
     23 H11         -1.0620     2.6250    -0.7920 hn         1 6VF       0.265467
     24 H12         -2.0710     1.5700     0.0490 hn         1 6VF       0.265467
     25 H14          3.1570    -0.0020     1.1970 ha         1 6VF       0.133000
     26 H15          2.2130    -0.8890     3.8490 ho         1 6VF       0.425000
     27 H16         -2.5030     3.7610    -5.2260 ho         1 6VF       0.419000
     28 O3          -2.4240     2.8720    -4.9210 oh         1 6VF      -0.559800
     29 H43         -2.6950     2.5520    -1.2020 hn         1 6VF       0.265467
     30 H6          -2.6520     3.3260    -2.9230 h1         1 6VF      -0.010300
@<TRIPOS>BOND
     1     1     2 ar  
     2     1     4 1   
     3     1     5 ar  
     4     2    11 ar  
     5     2    14 1   
     6     3     5 ar  
     7     3    12 ar  
     8     3    15 1   
     9     4     9 1   
    10     4    16 1   
    11     4    17 1   
    12     5    18 1   
    13     6     7 1   
    14     6    19 1   
    15     6    28 1   
    16     6    30 1   
    17     7     8 1   
    18     7     9 1   
    19     7    20 1   
    20     8    21 1   
    21     9    10 1   
    22     9    22 1   
    23    10    23 1   
    24    10    24 1   
    25    10    29 1   
    26    11    12 ar  
    27    11    25 1   
    28    12    13 1   
    29    13    26 1   
    30    27    28 1   
@<TRIPOS>SUBSTRUCTURE
     1 6VF         1 TEMP              0 ****  ****    0 ROOT
