@<TRIPOS>MOLECULE
molecule
   30    30     1     0     0
SMALL
bcc


@<TRIPOS>ATOM
      1 C2           0.0000     0.0000     0.0000 ca         1 6VF      -0.172300
      2 C4           1.3830     0.0000     0.0000 ca         1 6VF      -0.118500
      3 C12         -0.0080     0.0060     2.3950 ca         1 6VF      -0.135500
      4 C20         -0.7510    -0.0060    -1.3070 c3         1 6VF      -0.052100
      5 C21         -0.6940     0.0000     1.1950 ca         1 6VF      -0.118500
      6 C22         -1.9230     2.8710    -3.5820 c3         1 6VF       0.119400
      7 C1          -1.6630     1.4300    -3.1370 c3         1 6VF       0.082100
      8 O2          -2.9000     0.7180    -3.0790 oh         1 6VF      -0.555800
      9 C3          -1.0110     1.4350    -1.7520 c3         1 6VF       0.071500
     10 N4          -1.9080     2.0900    -0.7910 nz         1 6VF      -0.855600
     11 C7           2.0740     0.0000     1.1970 ca         1 6VF      -0.135500
     12 C10          1.3800    -0.0000     2.3970 ca         1 6VF       0.145100
     13 O1           2.0570     0.0000     3.5760 oh         1 6VF      -0.510100
     14 H1           1.9250     0.0000    -0.9380 ha         1 6VF       0.132500
     15 H2          -0.5520     0.0060     3.3310 ha         1 6VF       0.164500
     16 H3          -1.6960    -0.5200    -1.1770 hc         1 6VF       0.095700
     17 H4          -0.1630    -0.5160    -2.0590 hc         1 6VF       0.095700
     18 H5          -1.7770     0.0030     1.1920 ha         1 6VF       0.132500
     19 H7          -0.9980     3.4340    -3.5420 h1         1 6VF       0.025700
     20 H8          -1.0010     0.9470    -3.8450 h1         1 6VF       0.098700
     21 H9          -2.3380     0.2840    -3.7000 ho         1 6VF       0.442000
     22 H10         -0.0730     1.9740    -1.7960 hx         1 6VF       0.112700
     23 H11         -1.0620     2.6250    -0.7920 hn         1 6VF       0.481133
     24 H12         -2.0710     1.5700     0.0490 hn         1 6VF       0.481133
     25 H14          3.1570    -0.0020     1.1970 ha         1 6VF       0.164500
     26 H15          2.2130    -0.8890     3.8490 ho         1 6VF       0.443000
     27 H16         -2.5030     3.7610    -5.2260 ho         1 6VF       0.434000
     28 O3          -2.4240     2.8720    -4.9210 oh         1 6VF      -0.576800
     29 H43         -2.6950     2.5520    -1.2020 hn         1 6VF       0.481133
     30 H6          -2.6520     3.3260    -2.9230 h1         1 6VF       0.025700
@<TRIPOS>BOND
     1    13    12 1   
     2    11    12 ar  
     3    11     2 ar  
     4    12     3 ar  
     5     2     1 ar  
     6     3     5 ar  
     7     1     5 ar  
     8     1     4 1   
     9     4     9 1   
    10     9    10 1   
    11     9     7 1   
    12     8     7 1   
    13     7     6 1   
    14    28     6 1   
    15     2    14 1   
    16     3    15 1   
    17     4    16 1   
    18     4    17 1   
    19     5    18 1   
    20     6    30 1   
    21     6    19 1   
    22     7    20 1   
    23     8    21 1   
    24     9    22 1   
    25    10    23 1   
    26    10    24 1   
    27    11    25 1   
    28    13    26 1   
    29    28    27 1   
    30    29    10 1   
@<TRIPOS>SUBSTRUCTURE
     1 6VF         1 TEMP              0 ****  ****    0 ROOT
