@<TRIPOS>MOLECULE
molecule
   48    47     1     0     0
SMALL
bcc


@<TRIPOS>ATOM
      1 P24          0.0000     0.0000     0.0000 p5         1 6VG       1.178900
      2 O26          1.6100     0.0000     0.0000 o          1 6VG      -0.909833
      3 O23         -0.4940     0.0000     1.3970 o          1 6VG      -0.909833
      4 O27         -0.5370     1.3140    -0.7590 os         1 6VG      -0.584200
      5 C28         -0.3190     2.6390    -0.2690 c3         1 6VG       0.229400
      6 C29         -0.9580     3.6470    -1.2260 c3         1 6VG      -0.068000
      7 C30         -0.3270     3.5050    -2.6120 c3         1 6VG      -0.066600
      8 C31         -2.4620     3.3790    -1.3210 c3         1 6VG      -0.066600
      9 C32         -0.7240     5.0660    -0.7020 c3         1 6VG       0.087100
     10 O33         -1.4270     5.2400     0.5310 oh         1 6VG      -0.552800
     11 C34          0.7500     5.2810    -0.4760 c          1 6VG       0.644100
     12 O35          1.1770     5.4110     0.6520 o          1 6VG      -0.589100
     13 N36          1.5920     5.3310    -1.5270 ns         1 6VG      -0.599900
     14 C37          3.0360     5.4430    -1.3030 c3         1 6VG       0.128000
     15 C38          3.7590     5.4800    -2.6500 c3         1 6VG      -0.173400
     16 C39          5.2450     5.5960    -2.4190 c          1 6VG       0.665100
     17 O40          5.6810     5.6440    -1.2890 o          1 6VG      -0.589100
     18 N41          6.0880     5.6460    -3.4700 ns         1 6VG      -0.599900
     19 C42          7.5320     5.7590    -3.2460 c3         1 6VG       0.127000
     20 C43          8.2550     5.7960    -4.5940 c3         1 6VG      -0.011300
     21 S1          10.0380     5.9340    -4.3160 ss         1 6VG      -0.248700
     22 C1          10.5890     5.9540    -5.9380 c          1 6VG       0.562700
     23 O1           9.7940     5.8810    -6.8510 o          1 6VG      -0.542100
     24 C2          12.0640     6.0620    -6.2300 c3         1 6VG      -0.174100
     25 O2          -0.5360    -1.3150    -0.7580 o          1 6VG      -0.909833
     26 H2           0.7460     2.8290    -0.2020 h1         1 6VG       0.030200
     27 H3          -0.7660     2.7390     0.7120 h1         1 6VG       0.030200
     28 H4          -0.8450     2.7330    -3.1680 hc         1 6VG       0.028700
     29 H5           0.7170     3.2360    -2.5080 hc         1 6VG       0.028700
     30 H6          -0.4050     4.4470    -3.1430 hc         1 6VG       0.028700
     31 H7          -2.6320     2.4690    -1.8840 hc         1 6VG       0.028700
     32 H8          -2.8720     3.2700    -0.3250 hc         1 6VG       0.028700
     33 H9          -2.9450     4.2090    -1.8220 hc         1 6VG       0.028700
     34 H10         -1.0870     5.7830    -1.4290 h1         1 6VG       0.006700
     35 H11         -1.6660     6.1460     0.6310 ho         1 6VG       0.373000
     36 H12          1.2270     5.3630    -2.4580 hn         1 6VG       0.306500
     37 H13          3.2470     6.3540    -0.7550 h1         1 6VG       0.072200
     38 H14          3.3800     4.5900    -0.7310 h1         1 6VG       0.072200
     39 H15          3.4150     6.3340    -3.2220 hc         1 6VG       0.062200
     40 H16          3.5490     4.5700    -3.1980 hc         1 6VG       0.062200
     41 H17          5.7270     5.6160    -4.4030 hn         1 6VG       0.311500
     42 H18          7.8760     4.9050    -2.6750 h1         1 6VG       0.063700
     43 H19          7.7420     6.6690    -2.6980 h1         1 6VG       0.063700
     44 H20          8.0440     4.8850    -5.1420 h1         1 6VG       0.078700
     45 H21          7.9110     6.6490    -5.1650 h1         1 6VG       0.078700
     46 H22         12.4220     5.1230    -6.6320 hc         1 6VG       0.063700
     47 H23         12.5970     6.2910    -5.3150 hc         1 6VG       0.063700
     48 H24         12.2320     6.8520    -6.9520 hc         1 6VG       0.063700
@<TRIPOS>BOND
     1    24    22 1
     2    22    23 2
     3    22    21 1
     4    21    20 1
     5    20    19 1
     6    17    16 2
     7    19    18 1
     8    16    18 1
     9    16    15 1
    10    15    14 1
    11    14    13 1
    12    13    11 1
    13    10     9 1
    14    11     9 1
    15    11    12 2
    16     9     6 1
    17     8     6 1
    18     6     7 1
    19     6     5 1
    20     5     4 1
    21     4     1 1
    22     3     1 1
    23     1     2 1
    24     1    25 1
    25     5    26 1
    26     5    27 1
    27     7    28 1
    28     7    29 1
    29     7    30 1
    30     8    31 1
    31     8    32 1
    32     8    33 1
    33     9    34 1
    34    10    35 1
    35    13    36 1
    36    14    37 1
    37    14    38 1
    38    15    39 1
    39    15    40 1
    40    18    41 1
    41    19    42 1
    42    19    43 1
    43    20    44 1
    44    20    45 1
    45    24    46 1
    46    24    47 1
    47    24    48 1
@<TRIPOS>SUBSTRUCTURE
     1 6VG         1 TEMP              0 ****  ****    0 ROOT
