@<TRIPOS>MOLECULE
6VL
   47    50     1     0     0
SMALL
bcc


@<TRIPOS>ATOM
      1 C29          1.5300     0.0000     0.0000 c3         1 6VL      -0.035400
      2 C26         -1.4220     3.4850    -2.0200 ca         1 6VL      -0.105000
      3 C25         -2.3130     2.6490    -1.3740 ca         1 6VL      -0.105000
      4 C28          0.3890     2.0630    -1.3640 ca         1 6VL      -0.093500
      5 C27         -0.0710     3.1930    -2.0140 ca         1 6VL      -0.105000
      6 C24         -1.8530     1.5220    -0.7200 ca         1 6VL      -0.093500
      7 C23         -0.5000     0.0000     1.4160 cc         1 6VL      -0.312600
      8 C31          2.0400     1.1630     0.8540 c3         1 6VL      -0.023100
      9 C15          0.0000     0.0000     0.0000 c3         1 6VL       0.186800
     10 C14         -1.4930    -3.5140    -0.8460 c3         1 6VL       0.019800
     11 C6          -1.0610    -1.1540     2.0120 cc         1 6VL       0.444200
     12 C11         -2.0160    -3.0820    -2.2220 c3         1 6VL      -0.063000
     13 C12         -3.2040    -2.1330    -2.0470 c3         1 6VL      -0.001100
     14 O            0.0920    -0.2530    -2.6720 o          1 6VL      -0.572100
     15 C10         -0.8780    -2.3710    -2.9620 c3         1 6VL      -0.113400
     16 C13         -2.4540    -4.3130    -3.0170 c3         1 6VL      -0.001100
     17 N2          -1.1790    -2.3440     1.2870 nu         1 6VL      -0.270700
     18 N1          -1.3940    -0.8610     3.2320 nd         1 6VL      -0.639800
     19 N           -1.0640     0.4840     3.4620 na         1 6VL       0.379400
     20 C5          -0.5180     0.9830     2.3270 cd         1 6VL      -0.212300
     21 C8          -0.5020    -1.2330    -0.7200 ce         1 6VL      -0.296400
     22 C30         -0.5010     1.2320    -0.7090 ca         1 6VL      -0.068300
     23 H1           1.8910     0.1120    -1.0150 hc         1 6VL       0.029200
     24 H2           1.8910    -0.9350     0.4110 hc         1 6VL       0.029200
     25 H3          -1.7820     4.3690    -2.5310 ha         1 6VL       0.098000
     26 H4          -3.3720     2.8770    -1.3800 ha         1 6VL       0.099000
     27 H5           1.4480     1.8350    -1.3580 ha         1 6VL       0.115000
     28 H6           0.6270     3.8460    -2.5240 ha         1 6VL       0.099000
     29 H7          -2.5510     0.8690    -0.2100 ha         1 6VL       0.115000
     30 H8           2.1530     0.8350     1.8800 hc         1 6VL       0.009700
     31 H9           2.9970     1.4980     0.4740 hc         1 6VL       0.009700
     32 H10          1.3290     1.9800     0.8120 hc         1 6VL       0.009700
     33 H11         -0.6370    -4.1620    -0.9990 hc         1 6VL       0.036200
     34 H12         -2.3120    -3.9670    -0.3010 hc         1 6VL       0.036200
     35 H13         -4.1210    -2.6510    -2.3000 hc         1 6VL       0.011033
     36 H14         -3.2500    -1.7980    -1.0180 hc         1 6VL       0.011033
     37 H15         -3.0820    -1.2770    -2.7000 hc         1 6VL       0.011033
     38 H16         -1.2400    -2.0010    -3.9130 hc         1 6VL       0.042700
     39 H17         -0.0620    -3.0650    -3.1230 hc         1 6VL       0.042700
     40 H18         -3.2270    -4.8400    -2.4710 hc         1 6VL       0.011033
     41 H19         -1.6050    -4.9700    -3.1640 hc         1 6VL       0.011033
     42 H20         -2.8400    -4.0020    -3.9800 hc         1 6VL       0.011033
     43 H22         -0.1590     1.9950     2.1830 h4         1 6VL       0.159000
     44 H24         -0.8190    -3.1640     1.7340 hn         1 6VL       0.278800
     45 H21         -1.7810     1.0420     3.8800 hn         1 6VL       0.144700
     46 C9          -0.3990    -1.2200    -2.1240 c          1 6VL       0.631300
     47 C7          -1.0300    -2.2960    -0.0770 c2         1 6VL       0.028800
@<TRIPOS>BOND
     1     1     8 1   
     2     1     9 1   
     3     1    23 1   
     4     1    24 1   
     5     2     3 ar  
     6     2     5 ar  
     7     2    25 1   
     8     3     6 ar  
     9     3    26 1   
    10     4     5 ar  
    11     4    22 ar  
    12     4    27 1   
    13     5    28 1   
    14     6    22 ar  
    15     6    29 1   
    16     7     9 1   
    17     7    11 1   
    18     7    20 2   
    19     8    30 1   
    20     8    31 1   
    21     8    32 1   
    22     9    21 1   
    23     9    22 1   
    24    10    12 1   
    25    10    33 1   
    26    10    34 1   
    27    10    47 1   
    28    11    17 1   
    29    11    18 2   
    30    12    13 1   
    31    12    15 1   
    32    12    16 1   
    33    13    35 1   
    34    13    36 1   
    35    13    37 1   
    36    14    46 2   
    37    15    38 1   
    38    15    39 1   
    39    15    46 1   
    40    16    40 1   
    41    16    41 1   
    42    16    42 1   
    43    17    44 1   
    44    17    47 1   
    45    18    19 1   
    46    19    20 1   
    47    19    45 1   
    48    20    43 1   
    49    21    46 1   
    50    21    47 2   
@<TRIPOS>SUBSTRUCTURE
     1 6VL         1 TEMP              0 ****  ****    0 ROOT
