@<TRIPOS>MOLECULE
6VM
   59    62     1     0     0
SMALL
bcc


@<TRIPOS>ATOM
      1 C1           0.0000     0.0000     0.0000 c3         1 6VM      -0.072000
      2 C2           1.5300     0.0000     0.0000 c3         1 6VM      -0.005767
      3 C3          -0.5110     0.0000     1.4420 c3         1 6VM      -0.005767
      4 C4          -0.5100     1.2500    -0.7210 c3         1 6VM       0.035900
      5 C5          -0.0920     1.2000    -2.1680 cc         1 6VM      -0.190600
      6 C6           0.8370     1.6690    -4.1390 cd         1 6VM       0.442200
      7 C14          3.5070     3.8990    -5.4920 c3         1 6VM       0.017800
      8 C24          0.0130     4.8640    -0.8200 ca         1 6VM      -0.101000
      9 C25         -0.9400     5.8510    -0.6460 ca         1 6VM      -0.102500
     10 C26         -1.5970     6.3780    -1.7430 ca         1 6VM      -0.109000
     11 C27         -1.3000     5.9190    -3.0120 ca         1 6VM      -0.102500
     12 C9           3.3080     4.7730    -2.7930 c          1 6VM       0.641300
     13 C8           2.3960     3.8110    -3.2670 ce         1 6VM      -0.318400
     14 C7           2.4640     3.3610    -4.5370 c2         1 6VM       0.036800
     15 C11          4.7720     4.2720    -4.7170 c3         1 6VM      -0.062000
     16 C10          4.3970     5.3250    -3.6690 c3         1 6VM      -0.113400
     17 C15          1.3530     3.3350    -2.2780 c3         1 6VM       0.206800
     18 C29          2.0230     3.0360    -0.9360 c3         1 6VM      -0.089100
     19 C30          0.3130     4.4100    -2.0890 ca         1 6VM      -0.065300
     20 C28         -0.3470     4.9330    -3.1850 ca         1 6VM      -0.101000
     21 C23          0.6940     2.0880    -2.7950 cd         1 6VM      -0.327600
     22 C           -0.5100    -1.2490    -0.7210 c3         1 6VM      -0.005767
     23 N           -0.4360     0.2480    -3.0670 na         1 6VM       0.419400
     24 N1           0.1600     0.5710    -4.2960 nc         1 6VM      -0.673800
     25 N2           1.6140     2.4060    -5.0370 nu         1 6VM      -0.245700
     26 H1           1.8910     0.1140    -1.0150 hc         1 6VM       0.010367
     27 H2           1.8910     0.8220     0.6060 hc         1 6VM       0.010367
     28 H3           1.8910    -0.9360     0.4090 hc         1 6VM       0.010367
     29 H4          -0.1630     0.8920     1.9490 hc         1 6VM       0.010367
     30 H5          -1.5940    -0.0150     1.4410 hc         1 6VM       0.010367
     31 H6          -0.1380    -0.8770     1.9570 hc         1 6VM       0.010367
     32 H7          -0.0920     2.1330    -0.2540 hc         1 6VM       0.045200
     33 H8          -1.5910     1.2860    -0.6590 hc         1 6VM       0.045200
     34 H9           6.7160     5.0920    -5.1290 hc         1 6VM       0.010533
     35 H10          5.4210     5.7460    -6.1410 hc         1 6VM       0.010533
     36 H11          6.0430     4.1170    -6.4430 hc         1 6VM       0.010533
     37 H12          4.5420     2.3160    -3.8600 hc         1 6VM       0.010533
     38 H13          6.1010     2.5860    -4.6500 hc         1 6VM       0.010533
     39 H14          5.7710     3.3160    -3.0730 hc         1 6VM       0.010533
     40 H15          3.7470     3.1390    -6.2260 hc         1 6VM       0.029700
     41 H16          3.1180     4.7790    -5.9900 hc         1 6VM       0.029700
     42 H17          0.5270     4.4510     0.0400 ha         1 6VM       0.110500
     43 H18         -1.1750     6.2090     0.3500 ha         1 6VM       0.099000
     44 H19         -2.3440     7.1510    -1.6070 ha         1 6VM       0.099000
     45 H20         -1.8160     6.3310    -3.8710 ha         1 6VM       0.099000
     46 H22          5.2670     5.5130    -3.0500 hc         1 6VM       0.046200
     47 H23          4.0100     6.1950    -4.1850 hc         1 6VM       0.046200
     48 H24          1.3080     2.5660    -0.2720 hc         1 6VM       0.038033
     49 H25          2.3740     3.9600    -0.4940 hc         1 6VM       0.038033
     50 H26          2.8630     2.3690    -1.0930 hc         1 6VM       0.038033
     51 H27         -0.1120     4.5750    -4.1810 ha         1 6VM       0.110500
     52 H28         -0.5250    -2.0840    -0.0320 hc         1 6VM       0.010367
     53 H29         -1.5130    -1.0680    -1.0910 hc         1 6VM       0.010367
     54 H30          0.1450    -1.4780    -1.5530 hc         1 6VM       0.010367
     55 H31         -1.0360    -0.5350    -2.8930 hn         1 6VM       0.166700
     56 H21          1.4040     2.3860    -6.0150 hn         1 6VM       0.282800
     57 C12          5.8140     4.8490    -5.6780 c3         1 6VM      -0.000600
     58 C13          5.3380     3.0320    -4.0240 c3         1 6VM      -0.000600
     59 O            3.2100     5.1690    -1.6480 o          1 6VM      -0.586100
@<TRIPOS>BOND
     1     1     2 1   
     2     1     3 1   
     3     1     4 1   
     4     1    22 1   
     5     2    26 1   
     6     2    27 1   
     7     2    28 1   
     8     3    29 1   
     9     3    30 1   
    10     3    31 1   
    11     4     5 1   
    12     4    32 1   
    13     4    33 1   
    14     5    21 2   
    15     5    23 1   
    16     6    21 1   
    17     6    24 2   
    18     6    25 1   
    19     7    14 1   
    20     7    15 1   
    21     7    40 1   
    22     7    41 1   
    23     8     9 ar  
    24     8    19 ar  
    25     8    42 1   
    26     9    10 ar  
    27     9    43 1   
    28    10    11 ar  
    29    10    44 1   
    30    11    20 ar  
    31    11    45 1   
    32    12    13 1   
    33    12    16 1   
    34    12    59 2   
    35    13    14 2   
    36    13    17 1   
    37    14    25 1   
    38    15    16 1   
    39    15    57 1   
    40    15    58 1   
    41    16    46 1   
    42    16    47 1   
    43    17    18 1   
    44    17    19 1   
    45    17    21 1   
    46    18    48 1   
    47    18    49 1   
    48    18    50 1   
    49    19    20 ar  
    50    20    51 1   
    51    22    52 1   
    52    22    53 1   
    53    22    54 1   
    54    23    24 1   
    55    23    55 1   
    56    25    56 1   
    57    34    57 1   
    58    35    57 1   
    59    36    57 1   
    60    37    58 1   
    61    38    58 1   
    62    39    58 1   
@<TRIPOS>SUBSTRUCTURE
     1 6VM         1 TEMP              0 ****  ****    0 ROOT
