@<TRIPOS>MOLECULE
6VN
   63    66     1     0     0
SMALL
bcc


@<TRIPOS>ATOM
      1 C1           0.0000     0.0000     0.0000 ca         1 6VN      -0.268200
      2 C2          -0.0060    -0.0000     2.4200 ca         1 6VN      -0.035000
      3 C3           1.3890     0.0000     0.0000 ca         1 6VN      -0.147000
      4 C4           1.3870    -0.0010     2.4010 ca         1 6VN      -0.115600
      5 C8          -6.9390    -0.3360     1.1010 ca         1 6VN      -0.130300
      6 C9          -6.9220     0.3600    -0.0930 ca         1 6VN      -0.075500
      7 C10         -5.7800    -0.9190     1.5820 ca         1 6VN      -0.075500
      8 C11         -5.7460     0.4760    -0.8100 ca         1 6VN      -0.140500
      9 C12         -4.6020    -0.8070     0.8700 ca         1 6VN      -0.140500
     10 C13         -4.5820    -0.1080    -0.3300 ca         1 6VN       0.030600
     11 C15         -1.3220     1.2680    -3.0610 c3         1 6VN      -0.044400
     12 C16         -1.0570     1.2770    -4.5680 c3         1 6VN      -0.064000
     13 C17         -0.7000     0.0140    -2.4410 c3         1 6VN      -0.062000
     14 C18         -1.6790     0.0310    -5.2030 c3         1 6VN      -0.020400
     15 C19         -1.3240    -1.2310    -3.0760 c3         1 6VN      -0.048400
     16 C20         -1.0580    -1.2230    -4.5830 c3         1 6VN      -0.055700
     17 C21         -1.6810    -2.4670    -5.2170 c3         1 6VN       0.007900
     18 C24         -8.7230     0.9420     2.2560 c3         1 6VN       0.004900
     19 C25         -9.2750    -1.1650     1.0310 c3         1 6VN       0.004900
     20 N1          -0.9540     0.0060    -0.9990 na         1 6VN       0.272700
     21 C5           2.0750     0.0000     1.1810 ca         1 6VN      -0.041000
     22 C7           2.1410    -0.0030     3.6700 c          1 6VN       0.976200
     23 O1           3.4870    -0.0030     3.6540 o          1 6VN      -0.885300
     24 O            1.5460    -0.0020     4.7290 o          1 6VN      -0.885300
     25 C           -0.7070     0.0000     1.2160 ca         1 6VN       0.064400
     26 N           -2.0320    -0.0000     0.9090 nc         1 6VN      -0.570100
     27 C6          -2.1790     0.0030    -0.3930 cd         1 6VN       0.287700
     28 N2          -3.3910     0.0070    -1.0530 nu         1 6VN      -0.291600
     29 H1          -0.5390    -0.0010     3.3630 ha         1 6VN       0.130000
     30 H2           1.9300     0.0010    -0.9390 ha         1 6VN       0.082000
     31 H3          -7.8300     0.8160    -0.4670 ha         1 6VN       0.101500
     32 H4          -5.7970    -1.4640     2.5180 ha         1 6VN       0.101500
     33 H5          -5.7330     1.0220    -1.7460 ha         1 6VN       0.127500
     34 H6          -3.6960    -1.2640     1.2480 ha         1 6VN       0.127500
     35 H7          -8.0410    -1.0270     2.7860 hc         1 6VN       0.026700
     36 H8          -0.8780     2.1490    -2.6130 hc         1 6VN       0.031200
     37 H9          -2.3910     1.2650    -2.8840 hc         1 6VN       0.031200
     38 H10          0.3670     0.0140    -2.6250 h1         1 6VN       0.065700
     39 H11         -1.4890     0.0380    -6.2700 hc         1 6VN       0.017200
     40 H12         -2.7470     0.0310    -5.0220 hc         1 6VN       0.017200
     41 H13         -0.8820    -2.1180    -2.6380 hc         1 6VN       0.029700
     42 H14         -2.3920    -1.2290    -2.9000 hc         1 6VN       0.029700
     43 H15          0.0110    -1.2190    -4.7600 hc         1 6VN       0.037700
     44 H16         -1.4590    -2.4820    -6.2770 hc         1 6VN       0.002367
     45 H17         -1.2720    -3.3540    -4.7500 hc         1 6VN       0.002367
     46 H18         -2.7550    -2.4460    -5.0740 hc         1 6VN       0.002367
     47 H19         -7.9120     1.5130     2.6930 hc         1 6VN       0.001200
     48 H20         -9.0820     1.4470     1.3670 hc         1 6VN       0.001200
     49 H21         -9.5300     0.8550     2.9730 hc         1 6VN       0.001200
     50 H22        -10.1280    -1.4170     1.6490 hc         1 6VN       0.001200
     51 H23         -8.8520    -2.0700     0.6130 hc         1 6VN       0.001200
     52 H24         -9.5910    -0.5090     0.2290 hc         1 6VN       0.001200
     53 H25         -1.2710     3.4100    -4.7060 hc         1 6VN       0.007533
     54 H26         -2.7520     2.5060    -5.0510 hc         1 6VN       0.007533
     55 H27         -1.4500     2.5600    -6.2470 hc         1 6VN       0.007533
     56 H28          0.9110     0.4670    -4.2660 hc         1 6VN       0.007533
     57 H29          0.8730     2.2210    -4.4950 hc         1 6VN       0.007533
     58 H30          0.6420     1.1430    -5.8790 hc         1 6VN       0.007533
     59 H31          3.1580    -0.0010     1.1750 ha         1 6VN       0.130000
     60 H33         -3.4160     0.0680    -2.0520 hn         1 6VN       0.289800
     61 C23         -1.6780     2.5300    -5.1880 c3         1 6VN       0.000400
     62 C22          0.4520     1.2770    -4.8200 c3         1 6VN       0.000400
     63 C14         -8.2210    -0.4550     1.8830 c3         1 6VN       0.012600
@<TRIPOS>BOND
     1     1     3 ar  
     2     1    20 1   
     3     1    25 ar  
     4     2     4 ar  
     5     2    25 ar  
     6     2    29 1   
     7     3    21 ar  
     8     3    30 1   
     9     4    21 ar  
    10     4    22 1   
    11     5     6 ar  
    12     5     7 ar  
    13     5    63 1   
    14     6     8 ar  
    15     6    31 1   
    16     7     9 ar  
    17     7    32 1   
    18     8    10 ar  
    19     8    33 1   
    20     9    10 ar  
    21     9    34 1   
    22    10    28 1   
    23    11    12 1   
    24    11    13 1   
    25    11    36 1   
    26    11    37 1   
    27    12    14 1   
    28    12    61 1   
    29    12    62 1   
    30    13    15 1   
    31    13    20 1   
    32    13    38 1   
    33    14    16 1   
    34    14    39 1   
    35    14    40 1   
    36    15    16 1   
    37    15    41 1   
    38    15    42 1   
    39    16    17 1   
    40    16    43 1   
    41    17    44 1   
    42    17    45 1   
    43    17    46 1   
    44    18    47 1   
    45    18    48 1   
    46    18    49 1   
    47    18    63 1   
    48    19    50 1   
    49    19    51 1   
    50    19    52 1   
    51    19    63 1   
    52    20    27 1   
    53    21    59 1   
    54    22    23 1   
    55    22    24 1   
    56    25    26 1   
    57    26    27 2   
    58    27    28 1   
    59    28    60 1   
    60    35    63 1   
    61    53    61 1   
    62    54    61 1   
    63    55    61 1   
    64    56    62 1   
    65    57    62 1   
    66    58    62 1   
@<TRIPOS>SUBSTRUCTURE
     1 6VN         1 TEMP              0 ****  ****    0 ROOT
