@<TRIPOS>MOLECULE
molecule
   34    33     1     0     0
SMALL
bcc


@<TRIPOS>ATOM
      1 C13          1.5300     0.0000     0.0000 c3         1 6VO       0.104500
      2 C14          0.0000     0.0000     0.0000 c3         1 6VO      -0.109400
      3 C16         -2.0350    -1.2570     0.7230 c3         1 6VO      -0.092100
      4 C20         -0.1050    -2.4800    -0.2880 c3         1 6VO      -0.092100
      5 C15         -0.5100    -1.3080     0.6090 c3         1 6VO      -0.090700
      6 N3           2.0190     0.0000     1.3860 nz         1 6VO      -0.800600
      7 C21          2.0400     1.2510    -0.7200 c3         1 6VO       0.136100
      8 C22          3.5690     1.2510    -0.7200 c3         1 6VO       0.119800
      9 C23          4.0800     2.5010    -1.4410 c3         1 6VO      -0.124600
     10 O6           4.0460     1.2510     0.6270 oh         1 6VO      -0.662800
     11 C24          4.0800     0.0020    -1.4420 c3         1 6VO      -0.124600
     12 O5           1.5620     2.4160    -0.0460 oh         1 6VO      -0.603800
     13 H1           1.8910    -0.8840    -0.5110 hx         1 6VO       0.115700
     14 H2          -0.3610     0.8360     0.5860 hc         1 6VO       0.085700
     15 H3          -0.3610     0.0900    -1.0170 hc         1 6VO       0.085700
     16 H4          -2.3240    -0.4040     1.3250 hc         1 6VO       0.050367
     17 H5          -2.4680    -1.1650    -0.2650 hc         1 6VO       0.050367
     18 H6          -2.3920    -2.1670     1.1910 hc         1 6VO       0.050367
     19 H7          -0.8050    -3.2960    -0.1540 hc         1 6VO       0.050367
     20 H8           0.8920    -2.8110    -0.0200 hc         1 6VO       0.050367
     21 H9          -0.1140    -2.1630    -1.3230 hc         1 6VO       0.050367
     22 H10         -0.0790    -1.4400     1.5940 hc         1 6VO       0.024700
     23 H11          1.2670    -0.2290     2.0050 hn         1 6VO       0.461800
     24 H12          2.3740     0.9070     1.6140 hn         1 6VO       0.461800
     25 H14          1.6790     1.2510    -1.7420 h1         1 6VO       0.090700
     26 H15          5.1540     2.4320    -1.5660 hc         1 6VO       0.060033
     27 H16          3.8400     3.3790    -0.8550 hc         1 6VO       0.060033
     28 H17          3.6070     2.5750    -2.4130 hc         1 6VO       0.060033
     29 H18          4.9460     1.5310     0.6420 ho         1 6VO       0.451000
     30 H19          3.4260    -0.2280    -2.2740 hc         1 6VO       0.060033
     31 H20          4.0940    -0.8340    -0.7520 hc         1 6VO       0.060033
     32 H21          5.0830     0.1820    -1.8100 hc         1 6VO       0.060033
     33 H22          1.1200     2.9770    -0.6620 ho         1 6VO       0.440000
     34 H33          2.7520    -0.6740     1.4800 hn         1 6VO       0.461800
@<TRIPOS>BOND
     1     4     5 1
     2     5     3 1
     3     5     2 1
     4     2     1 1
     5     6     1 1
     6     1     7 1
     7    12     7 1
     8     7     8 1
     9    10     8 1
    10     8    11 1
    11     8     9 1
    12     1    13 1
    13     2    14 1
    14     2    15 1
    15     3    16 1
    16     3    17 1
    17     3    18 1
    18     4    19 1
    19     4    20 1
    20     4    21 1
    21     5    22 1
    22     6    23 1
    23     6    24 1
    24     7    25 1
    25     9    26 1
    26     9    27 1
    27     9    28 1
    28    10    29 1
    29    11    30 1
    30    11    31 1
    31    11    32 1
    32    12    33 1
    33    34     6 1
@<TRIPOS>SUBSTRUCTURE
     1 6VO         1 TEMP              0 ****  ****    0 ROOT
