@<TRIPOS>MOLECULE
6VP
   16    16     1     0     0
SMALL
bcc


@<TRIPOS>ATOM
      1 NAA         -1.3060     0.0080    -2.2110 n1         1 6VP      -0.348800
      2 CAE         -0.7190    -0.0000    -1.2380 cg         1 6VP       0.224800
      3 CAJ          0.0000     0.0000     0.0000 ca         1 6VP      -0.015000
      4 CAH          1.3970     0.0000     0.0000 ca         1 6VP       0.037000
      5 CAI         -0.6930     0.0070     1.2180 ca         1 6VP       0.214100
      6 OAB         -2.0490     0.0130     1.2300 oh         1 6VP      -0.487100
      7 CAF          0.0140     0.0080     2.4110 ca         1 6VP      -0.174000
      8 CAG          1.3950     0.0020     2.3970 ca         1 6VP       0.028000
      9 CAK          2.0840     0.0000     1.1950 ca         1 6VP      -0.472200
     10 NAL          3.5640    -0.0010     1.1940 no         1 6VP       1.049200
     11 OAD          4.1720    -0.0030     0.1390 o          1 6VP      -0.444500
     12 OAC          4.1740    -0.0010     2.2490 o          1 6VP      -0.444500
     13 H1           1.9390    -0.0120    -0.9380 ha         1 6VP       0.144000
     14 H2          -2.3650    -0.8300     1.5110 ho         1 6VP       0.421000
     15 H3          -0.5170     0.0130     3.3550 ha         1 6VP       0.131000
     16 H4           1.9470     0.0030     3.3290 ha         1 6VP       0.136000
@<TRIPOS>BOND
     1     1     2 3   
     2     2     3 1   
     3     3     4 ar  
     4     3     5 ar  
     5     4     9 ar  
     6     4    13 1   
     7     5     6 1   
     8     5     7 ar  
     9     6    14 1   
    10     7     8 ar  
    11     7    15 1   
    12     8     9 ar  
    13     8    16 1   
    14     9    10 1   
    15    10    11 1   
    16    10    12 1   
@<TRIPOS>SUBSTRUCTURE
     1 6VP         1 TEMP              0 ****  ****    0 ROOT
