@<TRIPOS>MOLECULE
6VS
   83    85     1     0     0
SMALL
bcc


@<TRIPOS>ATOM
      1 C4           0.0000     0.0000     0.0000 c3         1 6VS      -0.050400
      2 C5           1.5300     0.0000     0.0000 c3         1 6VS       0.161800
      3 C7           3.3730     0.0010    -1.6340 ca         1 6VS       0.588200
      4 C20          2.2300    -1.2550    -6.1840 c3         1 6VS       0.040700
      5 C22          2.4740     0.0050    -7.0170 c3         1 6VS       0.109800
      6 C24          0.1970    -0.0330    -7.8440 c3         1 6VS       0.152800
      7 C28         -1.5700    -1.2930    -6.6420 c          1 6VS       0.595100
      8 C1          -2.5190    -0.0010     2.7500 c3         1 6VS       0.256700
      9 C3          -0.5090     0.0000     1.4430 c3         1 6VS       0.218400
     10 N6           2.0180     0.0010    -1.3810 nu         1 6VS      -0.479900
     11 N8           4.2480     0.0950    -0.6380 nb         1 6VS      -0.702000
     12 C9           5.5430     0.0960    -0.8750 ca         1 6VS       0.673300
     13 N10          6.0350     0.0050    -2.0950 nb         1 6VS      -0.687000
     14 C11          5.2430    -0.0930    -3.1480 ca         1 6VS       0.506200
     15 C12          3.8580    -0.1040    -2.9540 ca         1 6VS      -0.495200
     16 O14          2.0460     0.6090    -4.2400 o          1 6VS      -0.658100
     17 N15          3.0700    -1.2170    -4.9830 n          1 6VS      -0.131800
     18 C16          4.0550    -2.2740    -4.7450 c3         1 6VS       0.018000
     19 C18          4.3780    -4.6110    -3.9220 c3         1 6VS      -0.003600
     20 C19          2.8590    -3.0530    -2.6950 c3         1 6VS      -0.003600
     21 N23          1.6190    -0.0230    -8.2100 n7         1 6VS      -0.579200
     22 C25         -0.1150    -1.2940    -7.0360 c3         1 6VS      -0.122700
     23 C27          0.7560    -1.3140    -5.7760 c3         1 6VS      -0.057400
     24 N30         -2.4830    -1.8830    -7.4370 n          1 6VS      -0.156800
     25 C31         -2.0740    -2.6310    -8.6360 c3         1 6VS       0.003500
     26 C32         -2.9020    -2.1280    -9.8250 c3         1 6VS       0.198400
     27 O33         -4.2900    -2.1810    -9.4880 os         1 6VS      -0.404600
     28 C34         -4.6590    -1.3390    -8.3930 c3         1 6VS       0.198400
     29 C35         -3.9200    -1.8060    -7.1280 c3         1 6VS       0.003500
     30 C36          6.4960     0.2050     0.2890 c3         1 6VS      -0.112300
     31 C37          6.2790    -0.9750     1.2380 c3         1 6VS       0.012233
     32 C38          7.9360     0.1850    -0.2280 c3         1 6VS       0.012233
     33 C39          6.2400     1.5150     1.0360 c3         1 6VS       0.012233
     34 H1          -0.3610    -0.8850    -0.5100 hc         1 6VS       0.031200
     35 H2          -0.3610     0.8850    -0.5100 hc         1 6VS       0.031200
     36 H3           1.8920    -0.8850     0.5100 h1         1 6VS       0.025200
     37 H4           1.8920     0.8840     0.5110 h1         1 6VS       0.025200
     38 H5           2.5410    -3.7980    -4.6860 hc         1 6VS       0.030700
     39 H6           2.4760    -2.1300    -6.7750 h1         1 6VS       0.040700
     40 H7           2.2360     0.8790    -6.4240 h1         1 6VS       0.030200
     41 H8           3.5130     0.0400    -7.3200 h1         1 6VS       0.030200
     42 H9          -0.0270     0.8420    -7.2460 h1         1 6VS       0.016700
     43 H10         -0.4060    -0.0250    -8.7450 h1         1 6VS       0.016700
     44 H11         -3.5990     0.0000     2.6640 h1         1 6VS      -0.013300
     45 H12         -2.2000    -0.8860     3.2860 h1         1 6VS      -0.013300
     46 H13         -2.1990     0.8830     3.2880 h1         1 6VS      -0.013300
     47 H14         -0.1470    -0.8840     1.9540 h1         1 6VS      -0.009300
     48 H15         -0.1470     0.8850     1.9540 h1         1 6VS      -0.009300
     49 H16          1.3680     0.0490    -2.1410 hn         1 6VS       0.328800
     50 H17          5.6590    -0.1690    -4.1450 h4         1 6VS      -0.014900
     51 H18          4.8400    -1.8980    -4.1000 h1         1 6VS       0.039700
     52 H19          4.4840    -2.5870    -5.6900 h1         1 6VS       0.039700
     53 H20          3.8900    -5.4620    -3.4610 hc         1 6VS       0.008533
     54 H21          4.8240    -4.9160    -4.8610 hc         1 6VS       0.008533
     55 H22          5.1500    -4.2360    -3.2610 hc         1 6VS       0.008533
     56 H23          3.6610    -2.5880    -2.1350 hc         1 6VS       0.008533
     57 H24          2.0470    -2.3460    -2.8160 hc         1 6VS       0.008533
     58 H25          2.5020    -3.9240    -2.1590 hc         1 6VS       0.008533
     59 H26          1.8120     0.7790    -8.7770 hn         1 6VS       0.256800
     60 H28          0.1010    -2.1690    -7.6370 hc         1 6VS       0.044700
     61 H29          0.5170    -0.4570    -5.1590 hc         1 6VS       0.054200
     62 H30          0.5700    -2.2280    -5.2240 hc         1 6VS       0.054200
     63 H31         -1.0210    -2.4610    -8.8290 h1         1 6VS       0.040200
     64 H32         -2.2570    -3.6880    -8.4870 h1         1 6VS       0.040200
     65 H33         -2.6240    -1.1050   -10.0510 h1         1 6VS       0.014950
     66 H34         -2.7150    -2.7580   -10.6870 h1         1 6VS       0.014950
     67 H35         -5.7280    -1.4050    -8.2310 h1         1 6VS       0.014950
     68 H36         -4.3830    -0.3160    -8.6150 h1         1 6VS       0.014950
     69 H37         -4.2820    -2.7840    -6.8340 h1         1 6VS       0.040200
     70 H38         -4.0830    -1.0950    -6.3270 h1         1 6VS       0.040200
     71 H39          6.2840    -1.8990     0.6730 hc         1 6VS       0.008589
     72 H40          7.0730    -0.9970     1.9740 hc         1 6VS       0.008589
     73 H41          5.3250    -0.8650     1.7400 hc         1 6VS       0.008589
     74 H42          8.6200     0.2800     0.6060 hc         1 6VS       0.008589
     75 H43          8.1220    -0.7500    -0.7430 hc         1 6VS       0.008589
     76 H44          8.0850     1.0110    -0.9140 hc         1 6VS       0.008589
     77 H45          5.3140     1.4390     1.5930 hc         1 6VS       0.008589
     78 H46          7.0580     1.7060     1.7210 hc         1 6VS       0.008589
     79 H47          6.1670     2.3280     0.3250 hc         1 6VS       0.008589
     80 C13          2.9330    -0.2110    -4.0970 c          1 6VS       0.638700
     81 O2          -1.9380    -0.0000     1.4440 os         1 6VS      -0.416600
     82 O29         -1.9170    -0.7600    -5.6100 o          1 6VS      -0.638100
     83 C17          3.3730    -3.4680    -4.0750 c3         1 6VS      -0.071700
@<TRIPOS>BOND
     1     1     2 1   
     2     1     9 1   
     3     1    34 1   
     4     1    35 1   
     5     2    10 1   
     6     2    36 1   
     7     2    37 1   
     8     3    10 1   
     9     3    11 ar  
    10     3    15 ar  
    11     4     5 1   
    12     4    17 1   
    13     4    23 1   
    14     4    39 1   
    15     5    21 1   
    16     5    40 1   
    17     5    41 1   
    18     6    21 1   
    19     6    22 1   
    20     6    42 1   
    21     6    43 1   
    22     7    22 1   
    23     7    24 1   
    24     7    82 2   
    25     8    44 1   
    26     8    45 1   
    27     8    46 1   
    28     8    81 1   
    29     9    47 1   
    30     9    48 1   
    31     9    81 1   
    32    10    49 1   
    33    11    12 ar  
    34    12    13 ar  
    35    12    30 1   
    36    13    14 ar  
    37    14    15 ar  
    38    14    50 1   
    39    15    80 1   
    40    16    80 2   
    41    17    18 1   
    42    17    80 1   
    43    18    51 1   
    44    18    52 1   
    45    18    83 1   
    46    19    53 1   
    47    19    54 1   
    48    19    55 1   
    49    19    83 1   
    50    20    56 1   
    51    20    57 1   
    52    20    58 1   
    53    20    83 1   
    54    21    59 1   
    55    22    23 1   
    56    22    60 1   
    57    23    61 1   
    58    23    62 1   
    59    24    25 1   
    60    24    29 1   
    61    25    26 1   
    62    25    63 1   
    63    25    64 1   
    64    26    27 1   
    65    26    65 1   
    66    26    66 1   
    67    27    28 1   
    68    28    29 1   
    69    28    67 1   
    70    28    68 1   
    71    29    69 1   
    72    29    70 1   
    73    30    31 1   
    74    30    32 1   
    75    30    33 1   
    76    31    71 1   
    77    31    72 1   
    78    31    73 1   
    79    32    74 1   
    80    32    75 1   
    81    32    76 1   
    82    33    77 1   
    83    33    78 1   
    84    33    79 1   
    85    38    83 1   
@<TRIPOS>SUBSTRUCTURE
     1 6VS         1 TEMP              0 ****  ****    0 ROOT
