@<TRIPOS>MOLECULE
molecule
   83    85     1     0     0
SMALL
bcc


@<TRIPOS>ATOM
      1 C4           0.0000     0.0000     0.0000 c3         1 6VS      -0.103400
      2 C5           1.5300     0.0000     0.0000 c3         1 6VS       0.236800
      3 C7           3.3730     0.0010    -1.6340 ca         1 6VS       0.768200
      4 C20          2.2300    -1.2550    -6.1840 c3         1 6VS       0.126700
      5 C22          2.4740     0.0050    -7.0170 c3         1 6VS       0.134800
      6 C24          0.1970    -0.0330    -7.8440 c3         1 6VS       0.165800
      7 C28         -1.5700    -1.2930    -6.6420 c          1 6VS       0.667100
      8 C1          -2.5190    -0.0010     2.7500 c3         1 6VS       0.130700
      9 C3          -0.5090     0.0000     1.4430 c3         1 6VS       0.142400
     10 N6           2.0180     0.0010    -1.3810 nu         1 6VS      -0.890900
     11 N8           4.2480     0.0950    -0.6380 nb         1 6VS      -0.810000
     12 C9           5.5430     0.0960    -0.8750 ca         1 6VS       0.752300
     13 N10          6.0350     0.0050    -2.0950 nb         1 6VS      -0.788000
     14 C11          5.2430    -0.0930    -3.1480 ca         1 6VS       0.513200
     15 C12          3.8580    -0.1040    -2.9540 ca         1 6VS      -0.477200
     16 O14          2.0460     0.6090    -4.2400 o          1 6VS      -0.619100
     17 N15          3.0700    -1.2170    -4.9830 n          1 6VS      -0.481800
     18 C16          4.0550    -2.2740    -4.7450 c3         1 6VS       0.097000
     19 C18          4.3780    -4.6110    -3.9220 c3         1 6VS      -0.089100
     20 C19          2.8590    -3.0530    -2.6950 c3         1 6VS      -0.089100
     21 N23          1.6190    -0.0230    -8.2100 n7         1 6VS      -0.824200
     22 C25         -0.1150    -1.2940    -7.0360 c3         1 6VS      -0.141700
     23 C27          0.7560    -1.3140    -5.7760 c3         1 6VS      -0.089400
     24 N30         -2.4830    -1.8830    -7.4370 n          1 6VS      -0.495800
     25 C31         -2.0740    -2.6310    -8.6360 c3         1 6VS       0.065000
     26 C32         -2.9020    -2.1280    -9.8250 c3         1 6VS       0.120400
     27 O33         -4.2900    -2.1810    -9.4880 os         1 6VS      -0.419600
     28 C34         -4.6590    -1.3390    -8.3930 c3         1 6VS       0.120400
     29 C35         -3.9200    -1.8060    -7.1280 c3         1 6VS       0.065000
     30 C36          6.4960     0.2050     0.2890 c3         1 6VS      -0.097300
     31 C37          6.2790    -0.9750     1.2380 c3         1 6VS      -0.075767
     32 C38          7.9360     0.1850    -0.2280 c3         1 6VS      -0.075767
     33 C39          6.2400     1.5150     1.0360 c3         1 6VS      -0.075767
     34 H1          -0.3610    -0.8850    -0.5100 hc         1 6VS       0.063700
     35 H2          -0.3610     0.8850    -0.5100 hc         1 6VS       0.063700
     36 H3           1.8920    -0.8850     0.5100 h1         1 6VS       0.051700
     37 H4           1.8920     0.8840     0.5110 h1         1 6VS       0.051700
     38 H5           2.5410    -3.7980    -4.6860 hc         1 6VS       0.053700
     39 H6           2.4760    -2.1300    -6.7750 h1         1 6VS       0.067700
     40 H7           2.2360     0.8790    -6.4240 h1         1 6VS       0.053700
     41 H8           3.5130     0.0400    -7.3200 h1         1 6VS       0.053700
     42 H9          -0.0270     0.8420    -7.2460 h1         1 6VS       0.044200
     43 H10         -0.4060    -0.0250    -8.7450 h1         1 6VS       0.044200
     44 H11         -3.5990     0.0000     2.6640 h1         1 6VS       0.030033
     45 H12         -2.2000    -0.8860     3.2860 h1         1 6VS       0.030033
     46 H13         -2.1990     0.8830     3.2880 h1         1 6VS       0.030033
     47 H14         -0.1470    -0.8840     1.9540 h1         1 6VS       0.024700
     48 H15         -0.1470     0.8850     1.9540 h1         1 6VS       0.024700
     49 H16          1.3680     0.0490    -2.1410 hn         1 6VS       0.474800
     50 H17          5.6590    -0.1690    -4.1450 h4         1 6VS       0.031100
     51 H18          4.8400    -1.8980    -4.1000 h1         1 6VS       0.057700
     52 H19          4.4840    -2.5870    -5.6900 h1         1 6VS       0.057700
     53 H20          3.8900    -5.4620    -3.4610 hc         1 6VS       0.037700
     54 H21          4.8240    -4.9160    -4.8610 hc         1 6VS       0.037700
     55 H22          5.1500    -4.2360    -3.2610 hc         1 6VS       0.037700
     56 H23          3.6610    -2.5880    -2.1350 hc         1 6VS       0.037700
     57 H24          2.0470    -2.3460    -2.8160 hc         1 6VS       0.037700
     58 H25          2.5020    -3.9240    -2.1590 hc         1 6VS       0.037700
     59 H26          1.8120     0.7790    -8.7770 hn         1 6VS       0.361800
     60 H28          0.1010    -2.1690    -7.6370 hc         1 6VS       0.065700
     61 H29          0.5170    -0.4570    -5.1590 hc         1 6VS       0.076700
     62 H30          0.5700    -2.2280    -5.2240 hc         1 6VS       0.076700
     63 H31         -1.0210    -2.4610    -8.8290 h1         1 6VS       0.065950
     64 H32         -2.2570    -3.6880    -8.4870 h1         1 6VS       0.065950
     65 H33         -2.6240    -1.1050   -10.0510 h1         1 6VS       0.054700
     66 H34         -2.7150    -2.7580   -10.6870 h1         1 6VS       0.054700
     67 H35         -5.7280    -1.4050    -8.2310 h1         1 6VS       0.054700
     68 H36         -4.3830    -0.3160    -8.6150 h1         1 6VS       0.054700
     69 H37         -4.2820    -2.7840    -6.8340 h1         1 6VS       0.065950
     70 H38         -4.0830    -1.0950    -6.3270 h1         1 6VS       0.065950
     71 H39          6.2840    -1.8990     0.6730 hc         1 6VS       0.041256
     72 H40          7.0730    -0.9970     1.9740 hc         1 6VS       0.041256
     73 H41          5.3250    -0.8650     1.7400 hc         1 6VS       0.041256
     74 H42          8.6200     0.2800     0.6060 hc         1 6VS       0.041256
     75 H43          8.1220    -0.7500    -0.7430 hc         1 6VS       0.041256
     76 H44          8.0850     1.0110    -0.9140 hc         1 6VS       0.041256
     77 H45          5.3140     1.4390     1.5930 hc         1 6VS       0.041256
     78 H46          7.0580     1.7060     1.7210 hc         1 6VS       0.041256
     79 H47          6.1670     2.3280     0.3250 hc         1 6VS       0.041256
     80 C13          2.9330    -0.2110    -4.0970 c          1 6VS       0.692700
     81 O2          -1.9380    -0.0000     1.4440 os         1 6VS      -0.427600
     82 O29         -1.9170    -0.7600    -5.6100 o          1 6VS      -0.601100
     83 C17          3.3730    -3.4680    -4.0750 c3         1 6VS      -0.096700
@<TRIPOS>BOND
     1    33    30 1   
     2    30    31 1   
     3    30    12 1   
     4    30    32 1   
     5    13    12 ar  
     6    13    14 ar  
     7    12    11 ar  
     8    14    15 ar  
     9    11     3 ar  
    10    15     3 ar  
    11    15    80 1   
    12     3    10 1   
    13    16    80 2   
    14    80    17 1   
    15     2    10 1   
    16     2     1 1   
    17     9     1 1   
    18     9    81 1   
    19    17     4 1   
    20    17    18 1   
    21    23     4 1   
    22    23    22 1   
    23     4     5 1   
    24    18    83 1   
    25    81     8 1   
    26    82     7 2   
    27     7    22 1   
    28     7    24 1   
    29    25    24 1   
    30    25    26 1   
    31    22     6 1   
    32    24    29 1   
    33    29    28 1   
    34    83    20 1   
    35    83    19 1   
    36     5    21 1   
    37    26    27 1   
    38    27    28 1   
    39     6    21 1   
    40     1    34 1   
    41     1    35 1   
    42     2    36 1   
    43     2    37 1   
    44    83    38 1   
    45     4    39 1   
    46     5    40 1   
    47     5    41 1   
    48     6    42 1   
    49     6    43 1   
    50     8    44 1   
    51     8    45 1   
    52     8    46 1   
    53     9    47 1   
    54     9    48 1   
    55    10    49 1   
    56    14    50 1   
    57    18    51 1   
    58    18    52 1   
    59    19    53 1   
    60    19    54 1   
    61    19    55 1   
    62    20    56 1   
    63    20    57 1   
    64    20    58 1   
    65    21    59 1   
    66    22    60 1   
    67    23    61 1   
    68    23    62 1   
    69    25    63 1   
    70    25    64 1   
    71    26    65 1   
    72    26    66 1   
    73    28    67 1   
    74    28    68 1   
    75    29    69 1   
    76    29    70 1   
    77    31    71 1   
    78    31    72 1   
    79    31    73 1   
    80    32    74 1   
    81    32    75 1   
    82    32    76 1   
    83    33    77 1   
    84    33    78 1   
    85    33    79 1   
@<TRIPOS>SUBSTRUCTURE
     1 6VS         1 TEMP              0 ****  ****    0 ROOT
