@<TRIPOS>MOLECULE
molecule
   39    42     1     0     0
SMALL
bcc


@<TRIPOS>ATOM
      1 C4           0.0000     0.0000     0.0000 ca         1 6VT      -0.021000
      2 C7          -2.1670    -0.0040     2.9360 cc         1 6VT      -0.105100
      3 C6           0.0190     0.0000     2.4230 ca         1 6VT      -0.055200
      4 C9           2.1310    -0.0000    -1.2850 cp         1 6VT       0.001000
      5 C13          3.8350     0.9210    -2.7030 ca         1 6VT      -0.134000
      6 C8          -2.1160     0.0040     1.5730 cd         1 6VT      -0.145400
      7 C18          5.7280    -0.4160    -4.8630 cy         1 6VT      -0.102900
      8 C16          4.7770     1.3990    -5.4030 cy         1 6VT      -0.102900
      9 C19         -3.2580     0.0080     0.6510 c          1 6VT       0.906800
     10 C1           1.3890     0.0000     0.0000 cp         1 6VT      -0.112000
     11 C2           2.0890     0.0000     1.2110 ca         1 6VT       0.050400
     12 C3           1.4110     0.0000     2.4090 ca         1 6VT      -0.159000
     13 C5          -0.6860     0.0060     1.2090 ca         1 6VT      -0.075800
     14 N1          -0.9110    -0.0050     3.4420 na         1 6VT      -0.189400
     15 C10          1.8050    -0.9200    -2.2800 ca         1 6VT      -0.123500
     16 C11          2.4950    -0.9120    -3.4760 ca         1 6VT      -0.134000
     17 C12          3.5070     0.0060    -3.6870 ca         1 6VT      -0.090300
     18 C14          3.1520     0.9230    -1.5030 ca         1 6VT      -0.123500
     19 Cl1          3.8250    -0.0010     1.2030 cl         1 6VT      -0.146400
     20 C15          4.2570     0.0100    -4.9950 cy         1 6VT       0.181100
     21 C17          6.0600     0.6910    -5.8770 cy         1 6VT      -0.108400
     22 O1           3.5540    -0.6670    -6.0380 oh         1 6VT      -0.589800
     23 O2          -4.5160     0.0060     1.1360 o          1 6VT      -0.841800
     24 O3          -3.0690     0.0150    -0.5500 o          1 6VT      -0.841800
     25 H1          -0.5410     0.1210    -0.9310 ha         1 6VT       0.176000
     26 H2          -3.0760    -0.0080     3.5250 h4         1 6VT       0.183000
     27 H3           4.5570     1.6950    -2.4710 ha         1 6VT       0.137500
     28 H6           4.9430     2.0550    -4.5570 hc         1 6VT       0.061950
     29 H7           4.2130     1.8410    -6.2150 hc         1 6VT       0.061950
     30 H8           1.9620     0.0000     3.3420 ha         1 6VT       0.120000
     31 H9          -0.6890    -0.0100     4.4180 hn         1 6VT       0.274700
     32 H10          1.0700    -1.6910    -2.0850 ha         1 6VT       0.139000
     33 H11          2.2500    -1.6330    -4.2460 ha         1 6VT       0.137500
     34 H12          3.2950     1.8450    -0.9520 ha         1 6VT       0.139000
     35 H13          6.9620     1.2370    -5.6290 hc         1 6VT       0.050200
     36 H14          6.0040     0.3550    -6.9050 hc         1 6VT       0.050200
     37 H15          3.0440    -0.0450    -6.5290 ho         1 6VT       0.406000
     38 H4           6.1380    -0.2250    -3.8780 hc         1 6VT       0.061950
     39 H5           5.9170    -1.4110    -5.2460 hc         1 6VT       0.061950
@<TRIPOS>BOND
     1     8    21 1
     2     8    20 1
     3    15    16 ar
     4    15     4 ar
     5    16    17 ar
     6    14     3 1
     7    14     2 1
     8    12     3 ar
     9    12    11 ar
    10     3    13 ar
    11     2     6 2
    12    19    11 1
    13    21     7 1
    14    11    10 ar
    15    13     6 1
    16    13     1 ar
    17     6     9 1
    18    10     1 ar
    19    10     4 1
    20     9    24 1
    21     9    23 1
    22     4    18 ar
    23    17    20 1
    24    17     5 ar
    25    20     7 1
    26    20    22 1
    27    18     5 ar
    28     1    25 1
    29     2    26 1
    30     5    27 1
    31     7    38 1
    32     7    39 1
    33     8    28 1
    34     8    29 1
    35    12    30 1
    36    14    31 1
    37    15    32 1
    38    16    33 1
    39    18    34 1
    40    21    35 1
    41    21    36 1
    42    22    37 1
@<TRIPOS>SUBSTRUCTURE
     1 6VT         1 TEMP              0 ****  ****    0 ROOT
