@<TRIPOS>MOLECULE
6VU
   77    80     1     0     0
SMALL
bcc


@<TRIPOS>ATOM
      1 C4           0.0000     0.0000     0.0000 c3         1 6VU      -0.029400
      2 C5           1.5300     0.0000     0.0000 c3         1 6VU      -0.040400
      3 C6           2.0400     0.0000     1.4430 c3         1 6VU      -0.060700
      4 C8           4.3190     1.1040     1.4430 cc         1 6VU       0.157800
      5 C10          5.6440    -0.6160     1.4350 ca         1 6VU       0.051400
      6 C13          5.1610    -3.3470     1.4290 ca         1 6VU      -0.084000
      7 C15          4.3230    -1.1050     1.4430 ca         1 6VU      -0.263200
      8 C20          6.6870     3.0490     0.1370 c3         1 6VU      -0.065700
      9 C21          6.5840     4.3820    -0.6060 c3         1 6VU      -0.001600
     10 C22          8.1480     2.5940     0.1670 c3         1 6VU      -0.001600
     11 C28          2.8240     6.6330     0.5760 c3         1 6VU      -0.118700
     12 C1          -2.5190    -0.0010    -2.7480 c3         1 6VU       0.255700
     13 C3          -0.5090    -0.0010    -1.4430 c3         1 6VU       0.211400
     14 N7           3.5050     0.0010     1.4420 na         1 6VU       0.383700
     15 N9           5.5730     0.7260     1.4380 nd         1 6VU      -0.504100
     16 C11          6.7130    -1.5240     1.4290 ca         1 6VU      -0.038000
     17 C12          6.4640    -2.8650     1.4270 ca         1 6VU      -0.118000
     18 C14          4.0930    -2.4760     1.4420 ca         1 6VU      -0.086000
     19 O17          2.6650     2.7520     1.3500 o          1 6VU      -0.672100
     20 N18          4.7420     3.5130     1.5450 n          1 6VU      -0.093800
     21 C19          6.1770     3.2220     1.5690 c3         1 6VU       0.000000
     22 C23          4.2750     4.8990     1.6310 c3         1 6VU       0.031700
     23 C25          3.4980     5.0950     2.9360 c3         1 6VU       0.114800
     24 N26          3.0110     6.4780     3.0140 n7         1 6VU      -0.578200
     25 C27          2.0890     6.7790     1.9110 c3         1 6VU       0.149800
     26 C30          3.3550     5.2040     0.4460 c3         1 6VU      -0.072400
     27 C31          1.8720     6.9220    -0.5550 c          1 6VU       0.595100
     28 O32          1.2990     6.0110    -1.1140 o          1 6VU      -0.637100
     29 N33          1.6570     8.1940    -0.9480 n          1 6VU      -0.159800
     30 C34          0.6540     8.5100    -1.9770 c3         1 6VU       0.003500
     31 C35         -0.2520     9.6260    -1.4430 c3         1 6VU       0.198400
     32 O36          0.5590    10.7130    -0.9910 os         1 6VU      -0.405600
     33 C37          1.4280    10.3840     0.0960 c3         1 6VU       0.198400
     34 C38          2.4150     9.3080    -0.3550 c3         1 6VU       0.003500
     35 H1          -0.3610    -0.8840     0.5110 hc         1 6VU       0.025700
     36 H2          -0.3610     0.8850     0.5100 hc         1 6VU       0.025700
     37 H3           1.8910    -0.8850    -0.5110 hc         1 6VU       0.028700
     38 H4           1.8910     0.8840    -0.5110 hc         1 6VU       0.028700
     39 H5           1.6780     0.8840     1.9540 h1         1 6VU       0.053700
     40 H6           1.6800    -0.8850     1.9530 h1         1 6VU       0.053700
     41 H7           4.9830    -4.4150     1.4270 ha         1 6VU       0.104000
     42 H8           6.0930     2.3020    -0.3770 hc         1 6VU       0.042700
     43 H9           7.3440     4.4260    -1.3770 hc         1 6VU       0.005533
     44 H10          5.6040     4.4680    -1.0600 hc         1 6VU       0.005533
     45 H11          6.7310     5.1970     0.0920 hc         1 6VU       0.005533
     46 H12          8.4150     2.1730    -0.7940 hc         1 6VU       0.005533
     47 H13          8.2770     1.8450     0.9390 hc         1 6VU       0.005533
     48 H14          8.7860     3.4440     0.3790 hc         1 6VU       0.005533
     49 H15          3.6530     7.3290     0.5440 hc         1 6VU       0.044700
     50 H16         -2.2030    -0.8880    -3.2840 h1         1 6VU      -0.013967
     51 H17         -3.5990     0.0030    -2.6630 h1         1 6VU      -0.013967
     52 H18         -2.1960     0.8810    -3.2870 h1         1 6VU      -0.013967
     53 H19         -0.1480     0.8830    -1.9540 h1         1 6VU      -0.007800
     54 H20         -0.1480    -0.8860    -1.9530 h1         1 6VU      -0.007800
     55 H21          7.7330    -1.1610     1.4270 ha         1 6VU       0.108000
     56 H22          7.2930    -3.5630     1.4170 ha         1 6VU       0.105000
     57 H23          3.0800    -2.8580     1.4440 ha         1 6VU       0.105000
     58 H24          6.3510     2.3100     2.1270 h1         1 6VU       0.055200
     59 H25          6.7040     4.0410     2.0430 h1         1 6VU       0.055200
     60 H26          5.1220     5.5730     1.6120 h1         1 6VU       0.046700
     61 H27          4.1510     4.8970     3.7770 h1         1 6VU       0.025200
     62 H28          2.6550     4.4160     2.9590 h1         1 6VU       0.025200
     63 H29          2.5440     6.6190     3.8870 hn         1 6VU       0.255800
     64 H31          1.2560     6.0880     1.9400 h1         1 6VU       0.015700
     65 H32          1.7270     7.7950     2.0120 h1         1 6VU       0.015700
     66 H33          3.9130     5.1090    -0.4780 hc         1 6VU       0.064200
     67 H34          2.5240     4.5090     0.4450 hc         1 6VU       0.064200
     68 H35          1.1510     8.8450    -2.8790 h1         1 6VU       0.039950
     69 H36          0.0590     7.6290    -2.1880 h1         1 6VU       0.039950
     70 H37         -0.8420     9.2480    -0.6180 h1         1 6VU       0.014450
     71 H38         -0.9060     9.9690    -2.2350 h1         1 6VU       0.014450
     72 H39          1.9730    11.2680     0.4020 h1         1 6VU       0.014450
     73 H40          0.8410    10.0090     0.9260 h1         1 6VU       0.014450
     74 H41          2.9770     8.9500     0.4990 h1         1 6VU       0.039950
     75 H42          3.0900     9.7220    -1.0950 h1         1 6VU       0.039950
     76 C16          3.8520     2.5070     1.4430 c          1 6VU       0.551800
     77 O2          -1.9390    -0.0010    -1.4440 os         1 6VU      -0.418600
@<TRIPOS>BOND
     1     1     2 1   
     2     1    13 1   
     3     1    35 1   
     4     1    36 1   
     5     2     3 1   
     6     2    37 1   
     7     2    38 1   
     8     3    14 1   
     9     3    39 1   
    10     3    40 1   
    11     4    14 1   
    12     4    15 2   
    13     4    76 1   
    14     5     7 ar  
    15     5    15 1   
    16     5    16 ar  
    17     6    17 ar  
    18     6    18 ar  
    19     6    41 1   
    20     7    14 1   
    21     7    18 ar  
    22     8     9 1   
    23     8    10 1   
    24     8    21 1   
    25     8    42 1   
    26     9    43 1   
    27     9    44 1   
    28     9    45 1   
    29    10    46 1   
    30    10    47 1   
    31    10    48 1   
    32    11    25 1   
    33    11    26 1   
    34    11    27 1   
    35    11    49 1   
    36    12    50 1   
    37    12    51 1   
    38    12    52 1   
    39    12    77 1   
    40    13    53 1   
    41    13    54 1   
    42    13    77 1   
    43    16    17 ar  
    44    16    55 1   
    45    17    56 1   
    46    18    57 1   
    47    19    76 2   
    48    20    21 1   
    49    20    22 1   
    50    20    76 1   
    51    21    58 1   
    52    21    59 1   
    53    22    23 1   
    54    22    26 1   
    55    22    60 1   
    56    23    24 1   
    57    23    61 1   
    58    23    62 1   
    59    24    25 1   
    60    24    63 1   
    61    25    64 1   
    62    25    65 1   
    63    26    66 1   
    64    26    67 1   
    65    27    28 2   
    66    27    29 1   
    67    29    30 1   
    68    29    34 1   
    69    30    31 1   
    70    30    68 1   
    71    30    69 1   
    72    31    32 1   
    73    31    70 1   
    74    31    71 1   
    75    32    33 1   
    76    33    34 1   
    77    33    72 1   
    78    33    73 1   
    79    34    74 1   
    80    34    75 1   
@<TRIPOS>SUBSTRUCTURE
     1 6VU         1 TEMP              0 ****  ****    0 ROOT
