@<TRIPOS>MOLECULE
molecule
   77    80     1     0     0
SMALL
bcc


@<TRIPOS>ATOM
      1 C4           0.0000     0.0000     0.0000 c3         1 6VU      -0.078400
      2 C5           1.5300     0.0000     0.0000 c3         1 6VU      -0.099400
      3 C6           2.0400     0.0000     1.4430 c3         1 6VU       0.046300
      4 C8           4.3190     1.1040     1.4430 cc         1 6VU       0.372800
      5 C10          5.6440    -0.6160     1.4350 ca         1 6VU       0.078400
      6 C13          5.1610    -3.3470     1.4290 ca         1 6VU      -0.108000
      7 C15          4.3230    -1.1050     1.4430 ca         1 6VU      -0.084200
      8 C20          6.6870     3.0490     0.1370 c3         1 6VU      -0.085700
      9 C21          6.5840     4.3820    -0.6060 c3         1 6VU      -0.088600
     10 C22          8.1480     2.5940     0.1670 c3         1 6VU      -0.088600
     11 C28          2.8240     6.6330     0.5760 c3         1 6VU      -0.140700
     12 C1          -2.5190    -0.0010    -2.7480 c3         1 6VU       0.130700
     13 C3          -0.5090    -0.0010    -1.4430 c3         1 6VU       0.139400
     14 N7           3.5050     0.0010     1.4420 na         1 6VU      -0.110300
     15 N9           5.5730     0.7260     1.4380 nd         1 6VU      -0.592100
     16 C11          6.7130    -1.5240     1.4290 ca         1 6VU      -0.068000
     17 C12          6.4640    -2.8650     1.4270 ca         1 6VU      -0.147000
     18 C14          4.0930    -2.4760     1.4420 ca         1 6VU      -0.126000
     19 O17          2.6650     2.7520     1.3500 o          1 6VU      -0.619100
     20 N18          4.7420     3.5130     1.5450 n          1 6VU      -0.456800
     21 C19          6.1770     3.2220     1.5690 c3         1 6VU       0.092000
     22 C23          4.2750     4.8990     1.6310 c3         1 6VU       0.126700
     23 C25          3.4980     5.0950     2.9360 c3         1 6VU       0.135800
     24 N26          3.0110     6.4780     3.0140 n7         1 6VU      -0.823200
     25 C27          2.0890     6.7790     1.9110 c3         1 6VU       0.163800
     26 C30          3.3550     5.2040     0.4460 c3         1 6VU      -0.096400
     27 C31          1.8720     6.9220    -0.5550 c          1 6VU       0.668100
     28 O32          1.2990     6.0110    -1.1140 o          1 6VU      -0.600100
     29 N33          1.6570     8.1940    -0.9480 n          1 6VU      -0.497800
     30 C34          0.6540     8.5100    -1.9770 c3         1 6VU       0.065500
     31 C35         -0.2520     9.6260    -1.4430 c3         1 6VU       0.120400
     32 O36          0.5590    10.7130    -0.9910 os         1 6VU      -0.419600
     33 C37          1.4280    10.3840     0.0960 c3         1 6VU       0.120400
     34 C38          2.4150     9.3080    -0.3550 c3         1 6VU       0.065500
     35 H1          -0.3610    -0.8840     0.5110 hc         1 6VU       0.055700
     36 H2          -0.3610     0.8850     0.5100 hc         1 6VU       0.055700
     37 H3           1.8910    -0.8850    -0.5110 hc         1 6VU       0.057200
     38 H4           1.8910     0.8840    -0.5110 hc         1 6VU       0.057200
     39 H5           1.6780     0.8840     1.9540 h1         1 6VU       0.076200
     40 H6           1.6800    -0.8850     1.9530 h1         1 6VU       0.076200
     41 H7           4.9830    -4.4150     1.4270 ha         1 6VU       0.134000
     42 H8           6.0930     2.3020    -0.3770 hc         1 6VU       0.066700
     43 H9           7.3440     4.4260    -1.3770 hc         1 6VU       0.034367
     44 H10          5.6040     4.4680    -1.0600 hc         1 6VU       0.034367
     45 H11          6.7310     5.1970     0.0920 hc         1 6VU       0.034367
     46 H12          8.4150     2.1730    -0.7940 hc         1 6VU       0.034367
     47 H13          8.2770     1.8450     0.9390 hc         1 6VU       0.034367
     48 H14          8.7860     3.4440     0.3790 hc         1 6VU       0.034367
     49 H15          3.6530     7.3290     0.5440 hc         1 6VU       0.067700
     50 H16         -2.2030    -0.8880    -3.2840 h1         1 6VU       0.029033
     51 H17         -3.5990     0.0030    -2.6630 h1         1 6VU       0.029033
     52 H18         -2.1960     0.8810    -3.2870 h1         1 6VU       0.029033
     53 H19         -0.1480     0.8830    -1.9540 h1         1 6VU       0.026200
     54 H20         -0.1480    -0.8860    -1.9530 h1         1 6VU       0.026200
     55 H21          7.7330    -1.1610     1.4270 ha         1 6VU       0.140000
     56 H22          7.2930    -3.5630     1.4170 ha         1 6VU       0.134000
     57 H23          3.0800    -2.8580     1.4440 ha         1 6VU       0.131000
     58 H24          6.3510     2.3100     2.1270 h1         1 6VU       0.073700
     59 H25          6.7040     4.0410     2.0430 h1         1 6VU       0.073700
     60 H26          5.1220     5.5730     1.6120 h1         1 6VU       0.073700
     61 H27          4.1510     4.8970     3.7770 h1         1 6VU       0.050200
     62 H28          2.6550     4.4160     2.9590 h1         1 6VU       0.050200
     63 H29          2.5440     6.6190     3.8870 hn         1 6VU       0.361800
     64 H31          1.2560     6.0880     1.9400 h1         1 6VU       0.042700
     65 H32          1.7270     7.7950     2.0120 h1         1 6VU       0.042700
     66 H33          3.9130     5.1090    -0.4780 hc         1 6VU       0.083200
     67 H34          2.5240     4.5090     0.4450 hc         1 6VU       0.083200
     68 H35          1.1510     8.8450    -2.8790 h1         1 6VU       0.065950
     69 H36          0.0590     7.6290    -2.1880 h1         1 6VU       0.065950
     70 H37         -0.8420     9.2480    -0.6180 h1         1 6VU       0.054700
     71 H38         -0.9060     9.9690    -2.2350 h1         1 6VU       0.054700
     72 H39          1.9730    11.2680     0.4020 h1         1 6VU       0.054700
     73 H40          0.8410    10.0090     0.9260 h1         1 6VU       0.054700
     74 H41          2.9770     8.9500     0.4990 h1         1 6VU       0.065950
     75 H42          3.0900     9.7220    -1.0950 h1         1 6VU       0.065950
     76 C16          3.8520     2.5070     1.4430 c          1 6VU       0.623800
     77 O2          -1.9390    -0.0010    -1.4440 os         1 6VU      -0.432600
@<TRIPOS>BOND
     1    17    16 ar
     2    17     6 ar
     3    16     5 ar
     4     6    18 ar
     5    10     8 1
     6     5    15 1
     7     5     7 ar
     8    18     7 ar
     9    15     4 2
    10     7    14 1
    11     8    21 1
    12     8     9 1
    13    21    20 1
    14     4    14 1
    15     4    76 1
    16    14     3 1
    17    20    76 1
    18    20    22 1
    19    76    19 2
    20    28    27 2
    21     2     3 1
    22     2     1 1
    23    26    22 1
    24    26    11 1
    25    22    23 1
    26    27    11 1
    27    27    29 1
    28    23    24 1
    29     1    13 1
    30    34    29 1
    31    34    33 1
    32    11    25 1
    33    13    77 1
    34    25    24 1
    35    29    30 1
    36    33    32 1
    37    77    12 1
    38    32    31 1
    39    30    31 1
    40     1    35 1
    41     1    36 1
    42     2    37 1
    43     2    38 1
    44     3    39 1
    45     3    40 1
    46     6    41 1
    47     8    42 1
    48     9    43 1
    49     9    44 1
    50     9    45 1
    51    10    46 1
    52    10    47 1
    53    10    48 1
    54    11    49 1
    55    12    50 1
    56    12    51 1
    57    12    52 1
    58    13    53 1
    59    13    54 1
    60    16    55 1
    61    17    56 1
    62    18    57 1
    63    21    58 1
    64    21    59 1
    65    22    60 1
    66    23    61 1
    67    23    62 1
    68    24    63 1
    69    25    64 1
    70    25    65 1
    71    26    66 1
    72    26    67 1
    73    30    68 1
    74    30    69 1
    75    31    70 1
    76    31    71 1
    77    33    72 1
    78    33    73 1
    79    34    74 1
    80    34    75 1
@<TRIPOS>SUBSTRUCTURE
     1 6VU         1 TEMP              0 ****  ****    0 ROOT
