@<TRIPOS>MOLECULE
molecule
   17    17     1     0     0
SMALL
bcc


@<TRIPOS>ATOM
      1 O01          0.0000     0.0000     0.0000 oh         1 6VV      -0.607800
      2 C02          1.4290     0.0000     0.0000 c3         1 6VV       0.131100
      3 C03          1.9580     0.0000     1.4490 c3         1 6VV      -0.095900
      4 C04          3.2120     0.9070     1.3950 c3         1 6VV      -0.080400
      5 C05          2.7850     2.0230     0.4110 c3         1 6VV      -0.095900
      6 C06          1.9550     1.2870    -0.6600 c3         1 6VV       0.131100
      7 O07          2.7810     0.9610    -1.7800 oh         1 6VV      -0.607800
      8 H1          -0.3140    -0.8160    -0.3540 ho         1 6VV       0.402500
      9 H2           1.8050    -0.8670    -0.5300 h1         1 6VV       0.052200
     10 H3           2.2310    -1.0040     1.7520 hc         1 6VV       0.054450
     11 H4           1.2190     0.4180     2.1210 hc         1 6VV       0.054450
     12 H5           3.4270     1.3210     2.3730 hc         1 6VV       0.049200
     13 H6           4.0630     0.3590     1.0070 hc         1 6VV       0.049200
     14 H7           3.6570     2.4840    -0.0380 hc         1 6VV       0.054450
     15 H8           2.1770     2.7610     0.9190 hc         1 6VV       0.054450
     16 H9           1.1240     1.9070    -0.9730 h1         1 6VV       0.052200
     17 H10          2.4740     1.4240    -2.5420 ho         1 6VV       0.402500
@<TRIPOS>BOND
     1     3     4 1   
     2     3     2 1   
     3     7     6 1   
     4     4     5 1   
     5     2     6 1   
     6     2     1 1   
     7     6     5 1   
     8     1     8 1   
     9     2     9 1   
    10     3    10 1   
    11     3    11 1   
    12     4    12 1   
    13     4    13 1   
    14     5    14 1   
    15     5    15 1   
    16     6    16 1   
    17     7    17 1   
@<TRIPOS>SUBSTRUCTURE
     1 6VV         1 TEMP              0 ****  ****    0 ROOT
