@<TRIPOS>MOLECULE
molecule
   46    49     1     0     0
SMALL
bcc


@<TRIPOS>ATOM
      1 C6           0.0000     0.0000     0.0000 c3         1 6VW      -0.179400
      2 C2           0.1690    -1.4480     2.0760 ce         1 6VW      -0.264200
      3 C4           2.0880     0.0000     1.4110 c3         1 6VW      -0.035500
      4 C5           1.5280     0.0000     0.0000 c3         1 6VW      -0.071400
      5 C1          -0.4540    -1.2270     0.7670 c          1 6VW       0.570300
      6 O1          -1.2870    -1.9870     0.3200 o          1 6VW      -0.524100
      7 C3           1.3350    -0.8740     2.3660 c2         1 6VW      -0.048400
      8 C10          1.9120    -1.1050     3.7510 c3         1 6VW      -0.050200
      9 C11          3.3820    -1.5110     3.6100 c3         1 6VW      -0.075400
     10 C12          4.1230    -0.4430     2.8000 c3         1 6VW      -0.058700
     11 C13          3.5640    -0.4190     1.3700 c3         1 6VW      -0.056700
     12 C16          5.5990    -0.7900     2.7230 c3         1 6VW      -0.068700
     13 C17          6.2990     0.3600     1.9510 c3         1 6VW      -0.069000
     14 C18          5.8560     0.2590     0.5040 c3         1 6VW      -0.063400
     15 C19          4.3330     0.5480     0.4760 c3         1 6VW      -0.080400
     16 C24          6.3560    -0.7730     4.0570 c3         1 6VW      -0.073400
     17 C25          7.8300    -0.5640     3.6180 c3         1 6VW      -0.106400
     18 C26          7.7800     0.1190     2.2280 c3         1 6VW       0.154100
     19 C27          5.8760     1.7100     2.5340 c3         1 6VW      -0.078100
     20 O27          8.4860     1.3610     2.2600 oh         1 6VW      -0.600800
     21 H1          -0.3670     0.8940     0.4890 hc         1 6VW       0.068700
     22 H2          -0.3670    -0.0470    -1.0180 hc         1 6VW       0.068700
     23 H3          -0.3440    -2.0390     2.8260 ha         1 6VW       0.150000
     24 H5           2.0420     1.0160     1.7850 hc         1 6VW       0.062700
     25 H6           1.8800    -0.8840    -0.5180 hc         1 6VW       0.051200
     26 H7           1.8800     0.8840    -0.5180 hc         1 6VW       0.051200
     27 H9           1.3630    -1.8980     4.2450 hc         1 6VW       0.055200
     28 H10          1.8430    -0.1920     4.3300 hc         1 6VW       0.055200
     29 H11          3.4450    -2.4630     3.0950 hc         1 6VW       0.048200
     30 H12          3.8290    -1.5950     4.5930 hc         1 6VW       0.048200
     31 H13          3.9950     0.5280     3.2640 hc         1 6VW       0.064700
     32 H14          3.6340    -1.4160     0.9500 hc         1 6VW       0.056700
     33 H15          5.7450    -1.7340     2.2130 hc         1 6VW       0.057700
     34 H16          6.3820     0.9930    -0.0950 hc         1 6VW       0.045700
     35 H17          6.0490    -0.7390     0.1290 hc         1 6VW       0.045700
     36 H18          4.1600     1.5600     0.8210 hc         1 6VW       0.046200
     37 H19          3.9740     0.4490    -0.5410 hc         1 6VW       0.046200
     38 H20          6.2420    -1.7190     4.5720 hc         1 6VW       0.047700
     39 H21          6.0210     0.0510     4.6750 hc         1 6VW       0.047700
     40 H22          8.3400     0.0770     4.3270 hc         1 6VW       0.051200
     41 H23          8.3340    -1.5200     3.5430 hc         1 6VW       0.051200
     42 H24          8.1980    -0.5380     1.4740 h1         1 6VW       0.034700
     43 H25          6.4610     2.5000     2.0770 hc         1 6VW       0.042033
     44 H26          6.0440     1.7100     3.6040 hc         1 6VW       0.042033
     45 H27          4.8250     1.8770     2.3330 hc         1 6VW       0.042033
     46 H28          9.3510     1.2400     1.9050 ho         1 6VW       0.398000
@<TRIPOS>BOND
     1    20    18 1
     2    14    15 1
     3    14    13 1
     4    15    11 1
     5    19    13 1
     6    13    18 1
     7    13    12 1
     8    18    17 1
     9     4     1 1
    10     4     3 1
    11     1     5 1
    12    11     3 1
    13    11    10 1
    14     3     7 1
    15    17    16 1
    16    12    10 1
    17    12    16 1
    18    10     9 1
    19     5     6 2
    20     5     2 1
    21     7     2 2
    22     7     8 1
    23     9     8 1
    24     1    21 1
    25     1    22 1
    26     2    23 1
    27     3    24 1
    28     4    25 1
    29     4    26 1
    30     8    27 1
    31     8    28 1
    32     9    29 1
    33     9    30 1
    34    10    31 1
    35    11    32 1
    36    12    33 1
    37    14    34 1
    38    14    35 1
    39    15    36 1
    40    15    37 1
    41    16    38 1
    42    16    39 1
    43    17    40 1
    44    17    41 1
    45    18    42 1
    46    19    43 1
    47    19    44 1
    48    19    45 1
    49    20    46 1
@<TRIPOS>SUBSTRUCTURE
     1 6VW         1 TEMP              0 ****  ****    0 ROOT
