@<TRIPOS>MOLECULE
molecule
   34    36     1     0     0
SMALL
bcc


@<TRIPOS>ATOM
      1 O01          0.0000     0.0000     0.0000 o          1 6VX      -0.677533
      2 S02          1.5230     0.0000     0.0000 s6         1 6VX       1.234800
      3 O03          1.8730    -1.2370    -0.6050 o          1 6VX      -0.677533
      4 O04          1.8730     1.2360    -0.6050 o          1 6VX      -0.677533
      5 C05          1.9740     0.0000     1.7570 c3         1 6VX      -0.244600
      6 C06          1.4110    -1.2310     2.4210 c          1 6VX       0.704100
      7 O07          0.2700    -1.2290     2.8340 o          1 6VX      -0.566100
      8 N08          2.1740    -2.3330     2.5550 ns         1 6VX      -0.440400
      9 C09          1.6570    -3.4640     3.1660 cc         1 6VX       0.503800
     10 N10          2.3020    -4.5650     3.3420 nd         1 6VX      -0.671100
     11 C11          1.6610    -5.5800     3.9530 ca         1 6VX       0.162400
     12 C12          2.1430    -6.8700     4.2610 ca         1 6VX      -0.096000
     13 C13          1.3350    -7.7810     4.8940 ca         1 6VX      -0.132000
     14 C14          0.0340    -7.4490     5.2420 ca         1 6VX      -0.152000
     15 C15         -0.4570    -6.1950     4.9520 ca         1 6VX      -0.074000
     16 C16          0.3480    -5.2580     4.3100 ca         1 6VX      -0.119100
     17 S17          0.0290    -3.5980     3.8140 ss         1 6VX      -0.003100
     18 C18          1.4110     1.2300     2.4210 ca         1 6VX      -0.036300
     19 C19          0.0450     1.4470     2.4310 ca         1 6VX      -0.092500
     20 C20         -0.4710     2.5760     3.0400 ca         1 6VX      -0.146000
     21 C21          0.3780     3.4880     3.6380 ca         1 6VX      -0.139000
     22 C22          1.7440     3.2720     3.6270 ca         1 6VX      -0.146000
     23 C23          2.2600     2.1400     3.0230 ca         1 6VX      -0.092500
     24 H1           3.0530     0.0000     1.8520 h1         1 6VX       0.074700
     25 H2           3.1230    -2.3260     2.2350 hn         1 6VX       0.347500
     26 H3           3.1570    -7.1430     3.9950 ha         1 6VX       0.135000
     27 H4           1.7170    -8.7680     5.1240 ha         1 6VX       0.121000
     28 H5          -0.5950    -8.1750     5.7420 ha         1 6VX       0.121000
     29 H6          -1.4740    -5.9370     5.2240 ha         1 6VX       0.127000
     30 H7          -0.6200     0.7320     1.9620 ha         1 6VX       0.157500
     31 H8          -1.5400     2.7450     3.0480 ha         1 6VX       0.115000
     32 H9          -0.0260     4.3730     4.1130 ha         1 6VX       0.107000
     33 H10          2.4090     3.9860     4.0980 ha         1 6VX       0.115000
     34 H11          3.3300     1.9710     3.0140 ha         1 6VX       0.157500
@<TRIPOS>BOND
     1     4     2 1   
     2     3     2 1   
     3     1     2 1   
     4     2     5 1   
     5     7     6 2   
     6     5     6 1   
     7     5    18 1   
     8     6     8 1   
     9    18    23 ar  
    10    18    19 ar  
    11    23    22 ar  
    12    19    20 ar  
    13     8     9 1   
    14    22    21 ar  
    15    17     9 1   
    16    17    16 1   
    17    20    21 ar  
    18     9    10 2   
    19    16    15 ar  
    20    16    11 ar  
    21    10    11 1   
    22    15    14 ar  
    23    11    12 ar  
    24    14    13 ar  
    25    12    13 ar  
    26     5    24 1   
    27     8    25 1   
    28    12    26 1   
    29    13    27 1   
    30    14    28 1   
    31    15    29 1   
    32    19    30 1   
    33    20    31 1   
    34    21    32 1   
    35    22    33 1   
    36    23    34 1   
@<TRIPOS>SUBSTRUCTURE
     1 6VX         1 TEMP              0 ****  ****    0 ROOT
