@<TRIPOS>MOLECULE
6VY
   32    33     1     0     0
SMALL
bcc


@<TRIPOS>ATOM
      1 N01          0.0000     0.0000     0.0000 ns         1 6VY      -0.046100
      2 C02          1.3480     0.0000     0.0000 c          1 6VY       0.625100
      3 O03          1.9550    -0.0000    -1.0510 o          1 6VY      -0.627100
      4 C04          2.1020     0.0000     1.3040 c3         1 6VY      -0.087600
      5 C05          3.3600     0.8150     1.1580 ca         1 6VY      -0.013300
      6 C06          3.5640     1.9230     1.9580 ca         1 6VY      -0.082000
      7 C07          4.7180     2.6710     1.8240 ca         1 6VY      -0.123000
      8 C08          5.6710     2.3110     0.8880 ca         1 6VY      -0.128000
      9 C09          5.4680     1.2010     0.0890 ca         1 6VY      -0.123000
     10 C10          4.3150     0.4510     0.2260 ca         1 6VY      -0.082000
     11 S11          2.5340    -1.7040     1.7540 s6         1 6VY       0.956800
     12 O12          1.3840    -2.5380     1.7100 o          1 6VY      -0.636533
     13 O13          3.3960    -2.1940     0.6000 o          1 6VY      -0.636533
     14 O14          3.4070    -1.7180     2.8750 o          1 6VY      -0.636533
     15 C15         -0.7000     0.1110    -1.2070 ca         1 6VY      -0.051400
     16 C16         -1.9180    -0.5350    -1.3660 ca         1 6VY      -0.127500
     17 C17         -2.6070    -0.4240    -2.5580 ca         1 6VY      -0.089000
     18 C18         -2.0830     0.3300    -3.5930 ca         1 6VY      -0.144000
     19 C19         -0.8690     0.9740    -3.4380 ca         1 6VY      -0.089000
     20 C20         -0.1790     0.8730    -2.2450 ca         1 6VY      -0.127500
     21 H011        -0.5000    -0.0520     0.8650 hn         1 6VY       0.169500
     22 H041         1.4810     0.4310     2.0800 h1         1 6VY       0.044700
     23 H061         2.8180     2.2060     2.6910 ha         1 6VY       0.136500
     24 H071         4.8770     3.5400     2.4510 ha         1 6VY       0.087000
     25 H081         6.5750     2.8970     0.7810 ha         1 6VY       0.082000
     26 H091         6.2150     0.9170    -0.6430 ha         1 6VY       0.087000
     27 H101         4.1570    -0.4180    -0.4010 ha         1 6VY       0.136500
     28 H161        -2.3290    -1.1260    -0.5560 ha         1 6VY       0.125000
     29 H171        -3.5580    -0.9270    -2.6820 ha         1 6VY       0.092000
     30 H181        -2.6240     0.4140    -4.5280 ha         1 6VY       0.090000
     31 H191        -0.4630     1.5660    -4.2490 ha         1 6VY       0.092000
     32 H201         0.7720     1.3770    -2.1240 ha         1 6VY       0.125000
@<TRIPOS>BOND
     1     1     2 1   
     2     1    15 1   
     3     1    21 1   
     4     2     3 2   
     5     2     4 1   
     6     4     5 1   
     7     4    11 1   
     8     4    22 1   
     9     5     6 ar  
    10     5    10 ar  
    11     6     7 ar  
    12     6    23 1   
    13     7     8 ar  
    14     7    24 1   
    15     8     9 ar  
    16     8    25 1   
    17     9    10 ar  
    18     9    26 1   
    19    10    27 1   
    20    11    12 1   
    21    11    13 1   
    22    11    14 1   
    23    15    16 ar  
    24    15    20 ar  
    25    16    17 ar  
    26    16    28 1   
    27    17    18 ar  
    28    17    29 1   
    29    18    19 ar  
    30    18    30 1   
    31    19    20 ar  
    32    19    31 1   
    33    20    32 1   
@<TRIPOS>SUBSTRUCTURE
     1 6VY         1 TEMP              0 ****  ****    0 ROOT
