@<TRIPOS>MOLECULE
molecule
   74    78     1     0     0
SMALL
bcc


@<TRIPOS>ATOM
      1 C1           0.0000     0.0000     0.0000 c3         1 6VZ       0.040700
      2 C2           1.5490     0.0000     0.0000 c3         1 6VZ      -0.087400
      3 C3           1.8610     0.0000     1.5200 c3         1 6VZ       0.156500
      4 C11         -3.3480    -3.5530     3.8680 ca         1 6VZ       0.135100
      5 C12         -3.0860    -2.8510     2.7030 ca         1 6VZ      -0.175000
      6 C13         -1.8320    -2.2700     2.5120 ca         1 6VZ      -0.038600
      7 C14         -0.8500    -2.4000     3.4950 ca         1 6VZ      -0.189000
      8 C18         -5.5320    -3.9520     3.0180 c3         1 6VZ      -0.005300
      9 C23          4.2270     0.0790     1.0240 c3         1 6VZ       0.117500
     10 C24          4.6590    -1.5380     3.4720 c3         1 6VZ      -0.011100
     11 C25          3.4840    -0.5920     3.2190 c3         1 6VZ       0.151800
     12 C26          5.7770    -1.2330     2.5140 ca         1 6VZ      -0.338900
     13 C27          5.5760    -0.4860     1.3760 ca         1 6VZ       0.488600
     14 C29          7.8040    -0.7310     0.8400 ca         1 6VZ       0.724900
     15 C4           0.7310    -0.8740     2.1040 c3         1 6VZ       0.084000
     16 N5          -0.3770    -0.8590     1.1380 n          1 6VZ      -0.473800
     17 C6          -0.5250    -0.5780    -1.2890 c          1 6VZ       0.655100
     18 N7          -0.5700     0.1840    -2.4000 ns         1 6VZ      -0.582900
     19 O8          -0.9070    -1.7280    -1.3270 o          1 6VZ      -0.575100
     20 C9          -1.1220    -3.1020     4.6510 ca         1 6VZ      -0.062000
     21 C10         -2.3660    -3.6720     4.8430 ca         1 6VZ      -0.217300
     22 N20         -2.5380    -5.8770     5.8500 nz         1 6VZ      -0.809600
     23 N22          3.1740    -0.6050     1.7800 n3         1 6VZ      -0.720600
     24 N28          6.6060    -0.2580     0.5660 nb         1 6VZ      -0.767000
     25 N30          8.0380    -1.4490     1.9200 nb         1 6VZ      -0.811000
     26 C31          7.0580    -1.7200     2.7760 ca         1 6VZ       0.696600
     27 O32          7.3000    -2.4590     3.8860 os         1 6VZ      -0.443100
     28 C33          8.6380    -2.9190     4.0800 c3         1 6VZ       0.144400
     29 C34          8.7160    -3.7290     5.3770 c3         1 6VZ      -0.048400
     30 C35         10.1490    -4.2220     5.5840 cx         1 6VZ      -0.146700
     31 C36         10.4110    -5.1530     6.7700 cx         1 6VZ      -0.131400
     32 C37         10.9030    -3.7050     6.8120 cx         1 6VZ      -0.131400
     33 H1          -0.3750     1.0050     0.1490 h1         1 6VZ       0.072700
     34 H2           1.9390     0.8940    -0.4710 hc         1 6VZ       0.079700
     35 H3           1.9330    -0.8960    -0.4720 hc         1 6VZ       0.079700
     36 H4           1.7710     1.0090     1.9040 h1         1 6VZ       0.047700
     37 H5          -3.8510    -2.7570     1.9420 ha         1 6VZ       0.202000
     38 H6           0.0940    -1.9530     3.2090 ha         1 6VZ       0.203000
     39 H7          -6.3710    -3.3170     3.2740 h1         1 6VZ       0.103700
     40 H8          -5.6970    -4.7910     2.3530 h1         1 6VZ       0.103700
     41 H9          -4.5730    -3.4590     2.9100 h1         1 6VZ       0.103700
     42 H10         -1.9540    -4.1340     6.8770 hx         1 6VZ       0.114200
     43 H11         -3.6660    -4.2170     6.4340 hx         1 6VZ       0.114200
     44 H12         -1.7300     0.3430    -4.1360 h1         1 6VZ       0.049367
     45 H13         -1.6380    -1.2810    -3.4450 h1         1 6VZ       0.049367
     46 H14         -0.2500    -0.6080    -4.3100 h1         1 6VZ       0.049367
     47 H15          4.0520    -0.0750    -0.0340 h1         1 6VZ       0.068200
     48 H16          4.2140     1.1300     1.2870 h1         1 6VZ       0.068200
     49 H17          4.3420    -2.5670     3.3580 hc         1 6VZ       0.062700
     50 H18          5.0200    -1.3790     4.4810 hc         1 6VZ       0.062700
     51 H19          3.7730     0.4120     3.5080 h1         1 6VZ       0.038200
     52 H20          2.6210    -0.9410     3.7720 h1         1 6VZ       0.038200
     53 H21          8.6190    -0.5280     0.1560 h5         1 6VZ       0.068100
     54 H22          0.3980    -0.4560     3.0460 h1         1 6VZ       0.059700
     55 H23          1.0840    -1.8890     2.2450 h1         1 6VZ       0.059700
     56 H24         -0.2020     1.1140    -2.3830 hn         1 6VZ       0.312500
     57 H25         -0.3580    -3.2060     5.4120 ha         1 6VZ       0.142000
     58 H26         -3.4460    -6.2620     5.6810 hn         1 6VZ       0.454133
     59 H27         -2.1090    -6.3420     6.6260 hn         1 6VZ       0.454133
     60 H30          9.3070    -2.0690     4.1440 h1         1 6VZ       0.056200
     61 H31          8.9260    -3.5470     3.2460 h1         1 6VZ       0.056200
     62 H32          8.4290    -3.1040     6.2130 hc         1 6VZ       0.052200
     63 H33          8.0480    -4.5790     5.3120 hc         1 6VZ       0.052200
     64 H34         10.7170    -4.5480     4.7210 hc         1 6VZ       0.087700
     65 H35          9.5400    -5.3750     7.3750 hc         1 6VZ       0.076450
     66 H36         11.1690    -5.9080     6.6000 hc         1 6VZ       0.076450
     67 H37         11.9740    -3.5840     6.6970 hc         1 6VZ       0.076450
     68 H38         10.3430    -3.0530     7.4710 hc         1 6VZ       0.076450
     69 C15         -1.5440    -1.5200     1.2700 c          1 6VZ       0.682700
     70 C19         -2.6560    -4.4370     6.1100 c3         1 6VZ       0.173100
     71 C21         -1.0800    -0.3770    -3.6540 c3         1 6VZ       0.095300
     72 O16         -2.3590    -1.5000     0.3690 o          1 6VZ      -0.540100
     73 H203        -1.9600    -6.0340     5.0470 hn         1 6VZ       0.454133
     74 O17         -4.5680    -4.1190     4.0590 os         1 6VZ      -0.366900
@<TRIPOS>BOND
     1    71    18 1
     2    18    17 1
     3    17     1 1
     4    17    19 2
     5     1     2 1
     6     1    16 1
     7    72    69 2
     8     2     3 1
     9    69    16 1
    10    69     6 1
    11    16    15 1
    12     3    15 1
    13     3    23 1
    14     9    23 1
    15     9    13 1
    16    24    13 ar
    17    24    14 ar
    18     7     6 ar
    19     7    20 ar
    20    23    11 1
    21    13    12 ar
    22     6     5 ar
    23    14    25 ar
    24    20    21 ar
    25    11    10 1
    26     5     4 ar
    27    12    26 ar
    28    12    10 1
    29    25    26 ar
    30    26    27 1
    31    21     4 ar
    32    21    70 1
    33     4    74 1
    34    27    28 1
    35    70    22 1
    36    74     8 1
    37    28    29 1
    38    32    30 1
    39    32    31 1
    40    30    29 1
    41    30    31 1
    42     1    33 1
    43     2    34 1
    44     2    35 1
    45     3    36 1
    46     5    37 1
    47     7    38 1
    48     8    39 1
    49     8    40 1
    50     8    41 1
    51    70    42 1
    52    70    43 1
    53    71    44 1
    54    71    45 1
    55    71    46 1
    56     9    47 1
    57     9    48 1
    58    10    49 1
    59    10    50 1
    60    11    51 1
    61    11    52 1
    62    14    53 1
    63    15    54 1
    64    15    55 1
    65    18    56 1
    66    20    57 1
    67    22    58 1
    68    22    59 1
    69    28    60 1
    70    28    61 1
    71    29    62 1
    72    29    63 1
    73    30    64 1
    74    31    65 1
    75    31    66 1
    76    32    67 1
    77    32    68 1
    78    73    22 1
@<TRIPOS>SUBSTRUCTURE
     1 6VZ         1 TEMP              0 ****  ****    0 ROOT
