@<TRIPOS>MOLECULE
6VZ
   74    78     1     0     0
SMALL
bcc


@<TRIPOS>ATOM
      1 C1           0.0000     0.0000     0.0000 c3         1 6VZ      -0.037300
      2 C2           1.5490     0.0000     0.0000 c3         1 6VZ      -0.033400
      3 C3           1.8610     0.0000     1.5200 c3         1 6VZ       0.125500
      4 C11         -3.3480    -3.5530     3.8680 ca         1 6VZ       0.143100
      5 C12         -3.0860    -2.8510     2.7030 ca         1 6VZ      -0.154000
      6 C13         -1.8320    -2.2700     2.5120 ca         1 6VZ      -0.030600
      7 C14         -0.8500    -2.4000     3.4950 ca         1 6VZ      -0.210000
      8 C18         -5.5320    -3.9520     3.0180 c3         1 6VZ       0.073700
      9 C23          4.2270     0.0790     1.0240 c3         1 6VZ       0.107500
     10 C24          4.6590    -1.5380     3.4720 c3         1 6VZ       0.060900
     11 C25          3.4840    -0.5920     3.2190 c3         1 6VZ       0.141800
     12 C26          5.7770    -1.2330     2.5140 ca         1 6VZ      -0.351900
     13 C27          5.5760    -0.4860     1.3760 ca         1 6VZ       0.443600
     14 C29          7.8040    -0.7310     0.8400 ca         1 6VZ       0.678900
     15 C4           0.7310    -0.8740     2.1040 c3         1 6VZ       0.012000
     16 N5          -0.3770    -0.8590     1.1380 n          1 6VZ      -0.123800
     17 C6          -0.5250    -0.5780    -1.2890 c          1 6VZ       0.562100
     18 N7          -0.5700     0.1840    -2.4000 ns         1 6VZ      -0.179900
     19 O8          -0.9070    -1.7280    -1.3270 o          1 6VZ      -0.615100
     20 C9          -1.1220    -3.1020     4.6510 ca         1 6VZ      -0.012000
     21 C10         -2.3660    -3.6720     4.8430 ca         1 6VZ      -0.241300
     22 N20         -2.5380    -5.8770     5.8500 nz         1 6VZ       0.071400
     23 N22          3.1740    -0.6050     1.7800 n3         1 6VZ      -0.530600
     24 N28          6.6060    -0.2580     0.5660 nb         1 6VZ      -0.660000
     25 N30          8.0380    -1.4490     1.9200 nb         1 6VZ      -0.705000
     26 C31          7.0580    -1.7200     2.7760 ca         1 6VZ       0.666600
     27 O32          7.3000    -2.4590     3.8860 os         1 6VZ      -0.428100
     28 C33          8.6380    -2.9190     4.0800 c3         1 6VZ       0.211400
     29 C34          8.7160    -3.7290     5.3770 c3         1 6VZ       0.006600
     30 C35         10.1490    -4.2220     5.5840 cx         1 6VZ      -0.121700
     31 C36         10.4110    -5.1530     6.7700 cx         1 6VZ      -0.075400
     32 C37         10.9030    -3.7050     6.8120 cx         1 6VZ      -0.075400
     33 H1          -0.3750     1.0050     0.1490 h1         1 6VZ       0.042700
     34 H2           1.9390     0.8940    -0.4710 hc         1 6VZ       0.047200
     35 H3           1.9330    -0.8960    -0.4720 hc         1 6VZ       0.047200
     36 H4           1.7710     1.0090     1.9040 h1         1 6VZ       0.027700
     37 H5          -3.8510    -2.7570     1.9420 ha         1 6VZ       0.183000
     38 H6           0.0940    -1.9530     3.2090 ha         1 6VZ       0.194000
     39 H7          -6.3710    -3.3170     3.2740 h1         1 6VZ       0.067367
     40 H8          -5.6970    -4.7910     2.3530 h1         1 6VZ       0.067367
     41 H9          -4.5730    -3.4590     2.9100 h1         1 6VZ       0.067367
     42 H10         -1.9540    -4.1340     6.8770 hx         1 6VZ       0.084200
     43 H11         -3.6660    -4.2170     6.4340 hx         1 6VZ       0.084200
     44 H12         -1.7300     0.3430    -4.1360 h1         1 6VZ       0.018033
     45 H13         -1.6380    -1.2810    -3.4450 h1         1 6VZ       0.018033
     46 H14         -0.2500    -0.6080    -4.3100 h1         1 6VZ       0.018033
     47 H15          4.0520    -0.0750    -0.0340 h1         1 6VZ       0.036200
     48 H16          4.2140     1.1300     1.2870 h1         1 6VZ       0.036200
     49 H17          4.3420    -2.5670     3.3580 hc         1 6VZ       0.029200
     50 H18          5.0200    -1.3790     4.4810 hc         1 6VZ       0.029200
     51 H19          3.7730     0.4120     3.5080 h1         1 6VZ       0.013200
     52 H20          2.6210    -0.9410     3.7720 h1         1 6VZ       0.013200
     53 H21          8.6190    -0.5280     0.1560 h5         1 6VZ       0.005100
     54 H22          0.3980    -0.4560     3.0460 h1         1 6VZ       0.038700
     55 H23          1.0840    -1.8890     2.2450 h1         1 6VZ       0.038700
     56 H24         -0.2020     1.1140    -2.3830 hn         1 6VZ       0.168500
     57 H25         -0.3580    -3.2060     5.4120 ha         1 6VZ       0.108000
     58 H26         -3.4460    -6.2620     5.6810 hn         1 6VZ       0.223800
     59 H27         -2.1090    -6.3420     6.6260 hn         1 6VZ       0.223800
     60 H30          9.3070    -2.0690     4.1440 h1         1 6VZ       0.017200
     61 H31          8.9260    -3.5470     3.2460 h1         1 6VZ       0.017200
     62 H32          8.4290    -3.1040     6.2130 hc         1 6VZ       0.020200
     63 H33          8.0480    -4.5790     5.3120 hc         1 6VZ       0.020200
     64 H34         10.7170    -4.5480     4.7210 hc         1 6VZ       0.064700
     65 H35          9.5400    -5.3750     7.3750 hc         1 6VZ       0.046450
     66 H36         11.1690    -5.9080     6.6000 hc         1 6VZ       0.046450
     67 H37         11.9740    -3.5840     6.6970 hc         1 6VZ       0.046450
     68 H38         10.3430    -3.0530     7.4710 hc         1 6VZ       0.046450
     69 C15         -1.5440    -1.5200     1.2700 c          1 6VZ       0.602700
     70 C19         -2.6560    -4.4370     6.1100 c3         1 6VZ       0.047100
     71 C21         -1.0800    -0.3770    -3.6540 c3         1 6VZ       0.070300
     72 O16         -2.3590    -1.5000     0.3690 o          1 6VZ      -0.579100
     73 H203        -1.9600    -6.0340     5.0470 hn         1 6VZ       0.223800
     74 O17         -4.5680    -4.1190     4.0590 os         1 6VZ      -0.336900
@<TRIPOS>BOND
     1     1     2 1   
     2     1    16 1   
     3     1    17 1   
     4     1    33 1   
     5     2     3 1   
     6     2    34 1   
     7     2    35 1   
     8     3    15 1   
     9     3    23 1   
    10     3    36 1   
    11     4     5 ar  
    12     4    21 ar  
    13     4    74 1   
    14     5     6 ar  
    15     5    37 1   
    16     6     7 ar  
    17     6    69 1   
    18     7    20 ar  
    19     7    38 1   
    20     8    39 1   
    21     8    40 1   
    22     8    41 1   
    23     8    74 1   
    24     9    13 1   
    25     9    23 1   
    26     9    47 1   
    27     9    48 1   
    28    10    11 1   
    29    10    12 1   
    30    10    49 1   
    31    10    50 1   
    32    11    23 1   
    33    11    51 1   
    34    11    52 1   
    35    12    13 ar  
    36    12    26 ar  
    37    13    24 ar  
    38    14    24 ar  
    39    14    25 ar  
    40    14    53 1   
    41    15    16 1   
    42    15    54 1   
    43    15    55 1   
    44    16    69 1   
    45    17    18 1   
    46    17    19 2   
    47    18    56 1   
    48    18    71 1   
    49    20    21 ar  
    50    20    57 1   
    51    21    70 1   
    52    22    58 1   
    53    22    59 1   
    54    22    70 1   
    55    22    73 1   
    56    25    26 ar  
    57    26    27 1   
    58    27    28 1   
    59    28    29 1   
    60    28    60 1   
    61    28    61 1   
    62    29    30 1   
    63    29    62 1   
    64    29    63 1   
    65    30    31 1   
    66    30    32 1   
    67    30    64 1   
    68    31    32 1   
    69    31    65 1   
    70    31    66 1   
    71    32    67 1   
    72    32    68 1   
    73    42    70 1   
    74    43    70 1   
    75    44    71 1   
    76    45    71 1   
    77    46    71 1   
    78    69    72 2   
@<TRIPOS>SUBSTRUCTURE
     1 6VZ         1 TEMP              0 ****  ****    0 ROOT
