@<TRIPOS>MOLECULE
6W0
   37    39     1     0     0
SMALL
bcc


@<TRIPOS>ATOM
      1 CAB          0.0000     0.0000     0.0000 c3         1 6W0      -0.034400
      2 CAD         -4.1190    -0.0530    -5.0780 ca         1 6W0      -0.086000
      3 CAE          4.5980     0.0000     0.0000 cc         1 6W0       0.021900
      4 CAH          3.3080     0.0000     0.3130 cd         1 6W0      -0.085000
      5 CAI         -1.7460     0.5780    -6.3580 ca         1 6W0      -0.110000
      6 CAP         -2.9510     0.7570    -7.0070 ca         1 6W0      -0.088300
      7 CAA         -2.9260     0.6170   -10.7120 c3         1 6W0       0.253700
      8 OAM         -2.9090     0.2120    -9.3420 os         1 6W0      -0.413600
      9 CAK         -2.9750     1.2970    -8.4140 c3         1 6W0       0.269700
     10 CAF         -4.1360     0.4420    -6.3680 ca         1 6W0      -0.092000
     11 CAG         -2.9170    -0.2360    -4.4220 ca         1 6W0      -0.114000
     12 CAQ         -1.7240     0.0800    -5.0610 ca         1 6W0      -0.103400
     13 NAL         -0.5060    -0.1020    -4.4010 ns         1 6W0      -0.005100
     14 OAC         -1.4700     0.0930    -2.4080 o          1 6W0      -0.666100
     15 CAR          0.8540     0.0000    -2.3830 cc         1 6W0      -0.352900
     16 CAJ          2.0820     0.0010    -3.0010 cd         1 6W0      -0.098000
     17 CAS          3.0640     0.0010    -1.9930 cc         1 6W0       0.006900
     18 SAN          4.8070     0.0000    -1.7440 ss         1 6W0      -0.270800
     19 CAT          2.4210     0.0000    -0.7690 cd         1 6W0      -0.266300
     20 NAU          1.0540     0.0000    -1.0170 na         1 6W0       0.518900
     21 H1          -0.5930    -0.9010    -0.0950 h1         1 6W0       0.033367
     22 H2           0.4490     0.0350     0.9850 h1         1 6W0       0.033367
     23 H3          -0.6350     0.8670    -0.1380 h1         1 6W0       0.033367
     24 H4          -5.0490    -0.2990    -4.5800 ha         1 6W0       0.104000
     25 H5           5.4080    -0.0000     0.7190 h4         1 6W0       0.148000
     26 H7           2.9640    -0.0000     1.3410 ha         1 6W0       0.114000
     27 H9          -0.8180     0.8260    -6.8590 ha         1 6W0       0.108000
     28 H10         -2.0770     1.2610   -10.9090 h1         1 6W0      -0.013967
     29 H11         -2.8710    -0.2580   -11.3480 h1         1 6W0      -0.013967
     30 H12         -3.8430     1.1560   -10.9180 h1         1 6W0      -0.013967
     31 H13         -3.8920     1.8520    -8.5730 h1         1 6W0      -0.007300
     32 H14         -2.1260     1.9530    -8.5640 h1         1 6W0      -0.007300
     33 H15         -5.0800     0.5840    -6.8800 ha         1 6W0       0.106000
     34 H16         -2.9040    -0.6240    -3.4110 ha         1 6W0       0.160000
     35 H17          0.3140    -0.3420    -4.9220 hn         1 6W0       0.173500
     36 H19          2.2610     0.1150    -4.0630 ha         1 6W0       0.128000
     37 CAO         -0.4450    -0.0000    -3.0590 c          1 6W0       0.625700
@<TRIPOS>BOND
     1     1    20 1   
     2     1    21 1   
     3     1    22 1   
     4     1    23 1   
     5     2    10 ar  
     6     2    11 ar  
     7     2    24 1   
     8     3     4 2   
     9     3    18 1   
    10     3    25 1   
    11     4    19 1   
    12     4    26 1   
    13     5     6 ar  
    14     5    12 ar  
    15     5    27 1   
    16     6     9 1   
    17     6    10 ar  
    18     7     8 1   
    19     7    28 1   
    20     7    29 1   
    21     7    30 1   
    22     8     9 1   
    23     9    31 1   
    24     9    32 1   
    25    10    33 1   
    26    11    12 ar  
    27    11    34 1   
    28    12    13 1   
    29    13    35 1   
    30    13    37 1   
    31    14    37 2   
    32    15    16 2   
    33    15    20 1   
    34    15    37 1   
    35    16    17 1   
    36    16    36 1   
    37    17    18 1   
    38    17    19 2   
    39    19    20 1   
@<TRIPOS>SUBSTRUCTURE
     1 6W0         1 TEMP              0 ****  ****    0 ROOT
