@<TRIPOS>MOLECULE
6W1
   60    64     1     0     0
SMALL
bcc


@<TRIPOS>ATOM
      1 N1           0.0000     0.0000     0.0000 ns         1 6W1      -0.078100
      2 C2           1.3470     0.0000     0.0000 c          1 6W1       0.628700
      3 O2          -6.7130    -3.9440    -3.8160 os         1 6W1      -0.305900
      4 C4          -0.1290     0.4740     2.3640 ca         1 6W1      -0.116000
      5 C6          -2.0780    -0.1490     3.6060 ca         1 6W1      -0.115000
      6 C7          -2.6500    -0.6680     2.4590 ca         1 6W1      -0.064000
      7 C8          -1.9670    -0.6140     1.2600 ca         1 6W1      -0.145300
      8 C9          -2.5900    -1.1790     0.0100 c3         1 6W1       0.268700
      9 C10         -4.5820    -2.2640    -0.7050 ca         1 6W1       0.110100
     10 O            1.9560     0.0000     1.0540 o          1 6W1      -0.620100
     11 C1           2.0790    -0.0010    -1.2690 cc         1 6W1      -0.357900
     12 C21          3.4430     0.1030    -1.4100 cd         1 6W1      -0.024000
     13 C22          3.7310     0.0610    -2.7870 cd         1 6W1      -0.004100
     14 C25          2.5370    -0.0700    -3.4700 cc         1 6W1      -0.248300
     15 C24          2.7050    -0.1240    -4.8580 cc         1 6W1      -0.095000
     16 C23          3.9580    -0.0420    -5.2880 cd         1 6W1       0.025900
     17 S            5.0650     0.1140    -3.9340 ss         1 6W1      -0.255800
     18 N            1.5190    -0.1140    -2.5230 na         1 6W1       0.444900
     19 C            0.0900    -0.2530    -2.8120 c3         1 6W1      -0.038400
     20 C3          -0.6990    -0.0470     1.2100 ca         1 6W1      -0.078400
     21 C5          -0.8200     0.4220     3.5590 ca         1 6W1      -0.077000
     22 O1          -3.8790    -1.7120     0.3200 os         1 6W1      -0.298900
     23 C20         -5.8400    -2.7990    -0.4750 ca         1 6W1      -0.133500
     24 C19         -6.5540    -3.3610    -1.5160 ca         1 6W1      -0.133500
     25 C13         -6.0110    -3.3900    -2.7920 ca         1 6W1       0.118100
     26 C12         -4.7530    -2.8560    -3.0220 ca         1 6W1      -0.133500
     27 C11         -4.0410    -2.2880    -1.9820 ca         1 6W1      -0.133500
     28 C14         -6.0930    -3.9400    -5.1040 c3         1 6W1       0.207400
     29 C15         -7.0260    -4.5990    -6.1210 c3         1 6W1      -0.063700
     30 C18         -8.2900    -3.7420    -6.3210 c3         1 6W1       0.144800
     31 N2          -8.3050    -3.3150    -7.7370 n7         1 6W1      -0.587200
     32 C17         -7.5210    -4.3370    -8.4770 c3         1 6W1       0.144800
     33 C16         -6.3520    -4.6540    -7.5120 c3         1 6W1      -0.020400
     34 H1          -0.5000     0.0650    -0.8650 hn         1 6W1       0.183500
     35 H2           0.8570     0.9210     2.3260 ha         1 6W1       0.159000
     36 H3          -2.6170    -0.1900     4.5450 ha         1 6W1       0.104000
     37 H4          -3.6360    -1.1140     2.5000 ha         1 6W1       0.121000
     38 H5          -1.9590    -1.9670    -0.3830 h1         1 6W1      -0.000300
     39 H6          -2.6910    -0.3950    -0.7300 h1         1 6W1      -0.000300
     40 H7           4.1690     0.0870    -0.6070 ha         1 6W1       0.146000
     41 H8           1.8670    -0.2250    -5.5370 ha         1 6W1       0.112000
     42 H9           4.2560    -0.0670    -6.3300 h4         1 6W1       0.149000
     43 H10         -0.4250     0.6580    -2.5330 h1         1 6W1       0.028700
     44 H11         -0.0480    -0.4370    -3.8710 h1         1 6W1       0.028700
     45 H12         -0.3140    -1.0840    -2.2460 h1         1 6W1       0.028700
     46 H13         -0.3750     0.8280     4.4590 ha         1 6W1       0.105000
     47 H14         -6.2640    -2.7760     0.5220 ha         1 6W1       0.113000
     48 H15         -7.5370    -3.7780    -1.3360 ha         1 6W1       0.118000
     49 H16         -4.3310    -2.8740    -4.0200 ha         1 6W1       0.118000
     50 H17         -3.0580    -1.8700    -2.1630 ha         1 6W1       0.113000
     51 H18         -5.8940    -2.9190    -5.4060 h1         1 6W1       0.006200
     52 H19         -5.1620    -4.4910    -5.0580 h1         1 6W1       0.006200
     53 H20         -7.2980    -5.5970    -5.7980 hc         1 6W1       0.038700
     54 H21         -8.2530    -2.8730    -5.6750 h1         1 6W1       0.017200
     55 H22         -9.1730    -4.3320    -6.1050 h1         1 6W1       0.017200
     56 H23         -9.2470    -3.3090    -8.0750 hn         1 6W1       0.253800
     57 H25         -8.1200    -5.2230    -8.6530 h1         1 6W1       0.011200
     58 H26         -7.1460    -3.9290    -9.4080 h1         1 6W1       0.011200
     59 H27         -5.9550    -5.6440    -7.7050 hc         1 6W1       0.022200
     60 H28         -5.5770    -3.9010    -7.5900 hc         1 6W1       0.022200
@<TRIPOS>BOND
     1     1     2 1   
     2     1    20 1   
     3     1    34 1   
     4     2    10 2   
     5     2    11 1   
     6     3    25 1   
     7     3    28 1   
     8     4    20 ar  
     9     4    21 ar  
    10     4    35 1   
    11     5     6 ar  
    12     5    21 ar  
    13     5    36 1   
    14     6     7 ar  
    15     6    37 1   
    16     7     8 1   
    17     7    20 ar  
    18     8    22 1   
    19     8    38 1   
    20     8    39 1   
    21     9    22 1   
    22     9    23 ar  
    23     9    27 ar  
    24    11    12 2   
    25    11    18 1   
    26    12    13 1   
    27    12    40 1   
    28    13    14 2   
    29    13    17 1   
    30    14    15 1   
    31    14    18 1   
    32    15    16 2   
    33    15    41 1   
    34    16    17 1   
    35    16    42 1   
    36    18    19 1   
    37    19    43 1   
    38    19    44 1   
    39    19    45 1   
    40    21    46 1   
    41    23    24 ar  
    42    23    47 1   
    43    24    25 ar  
    44    24    48 1   
    45    25    26 ar  
    46    26    27 ar  
    47    26    49 1   
    48    27    50 1   
    49    28    29 1   
    50    28    51 1   
    51    28    52 1   
    52    29    30 1   
    53    29    33 1   
    54    29    53 1   
    55    30    31 1   
    56    30    54 1   
    57    30    55 1   
    58    31    32 1   
    59    31    56 1   
    60    32    33 1   
    61    32    57 1   
    62    32    58 1   
    63    33    59 1   
    64    33    60 1   
@<TRIPOS>SUBSTRUCTURE
     1 6W1         1 TEMP              0 ****  ****    0 ROOT
