@<TRIPOS>MOLECULE
molecule
   27    28     1     0     0
SMALL
bcc


@<TRIPOS>ATOM
      1 O2           0.0000     0.0000     0.0000 o          1 6W2      -0.619300
      2 S            1.4210     0.0000     0.0000 sy         1 6W2       1.425200
      3 O1           2.1980     0.0000     1.1890 o          1 6W2      -0.619300
      4 N            1.8880    -1.3330    -0.8640 nu         1 6W2      -0.831800
      5 C7           3.2350    -1.5900    -1.0670 cc         1 6W2       0.705300
      6 S1           3.8570    -2.9250    -1.9370 ss         1 6W2      -0.209300
      7 C9           5.5010    -2.3700    -1.6320 cc         1 6W2      -0.208400
      8 C8           5.4340    -1.2490    -0.9140 cd         1 6W2       0.406200
      9 N1           4.2060    -0.8510    -0.6300 nd         1 6W2      -0.746000
     10 C4           1.9190     1.4190    -0.9190 ca         1 6W2      -0.352500
     11 C3           1.0600     1.9740    -1.8490 ca         1 6W2       0.019500
     12 C2           1.4470     3.0860    -2.5710 ca         1 6W2      -0.220000
     13 C5           3.1650     1.9780    -0.7050 ca         1 6W2       0.019500
     14 C6           3.5570     3.0900    -1.4240 ca         1 6W2      -0.220000
     15 C1           2.6990     3.6450    -2.3620 ca         1 6W2       0.195100
     16 O            3.0830     4.7390    -3.0710 os         1 6W2      -0.324900
     17 C            4.3860     5.2620    -2.8040 c3         1 6W2       0.126700
     18 H            1.1990    -1.9640    -1.2220 hn         1 6W2       0.473800
     19 H9           6.4090    -2.8580    -1.9680 h4         1 6W2       0.184000
     20 H8           6.3140    -0.7040    -0.5950 h4         1 6W2       0.048100
     21 H3           0.0820     1.5370    -2.0120 ha         1 6W2       0.160000
     22 H5           3.8340     1.5430     0.0270 ha         1 6W2       0.160000
     23 H2           0.7750     3.5190    -3.3010 ha         1 6W2       0.145000
     24 H6           4.5350     3.5260    -1.2570 ha         1 6W2       0.145000
     25 HC1          4.4520     5.5560    -1.7630 h1         1 6W2       0.045033
     26 HC2          5.1300     4.5030    -3.0120 h1         1 6W2       0.045033
     27 HC3          4.5650     6.1250    -3.4340 h1         1 6W2       0.045033
@<TRIPOS>BOND
     1     1     2 2
     2     2     3 2
     3     2     4 1
     4     2    10 1
     5     4     5 1
     6     5     6 1
     7     5     9 2
     8     6     7 1
     9     7     8 2
    10     8     9 1
    11    10    11 ar
    12    10    13 ar
    13    11    12 ar
    14    12    15 ar
    15    13    14 ar
    16    14    15 ar
    17    15    16 1
    18    16    17 1
    19     4    18 1
    20     7    19 1
    21     8    20 1
    22    11    21 1
    23    13    22 1
    24    12    23 1
    25    14    24 1
    26    17    25 1
    27    17    26 1
    28    17    27 1
@<TRIPOS>SUBSTRUCTURE
     1 6W2         1 TEMP              0 ****  ****    0 ROOT
