@<TRIPOS>MOLECULE
molecule
   63    67     1     0     0
SMALL
bcc


@<TRIPOS>ATOM
      1 CAB          0.0000     0.0000     0.0000 c3         1 6W3       0.038600
      2 CAD         -4.7360    -0.3290     5.9390 ca         1 6W3      -0.145000
      3 CAE         -4.5780     0.1840     4.6650 ca         1 6W3      -0.111000
      4 CAH         -3.3130     0.3280     4.1300 ca         1 6W3      -0.134000
      5 CAI         -0.9520    -2.3600    10.3420 ca         1 6W3      -0.150500
      6 CAL          1.7110    -2.2100     9.5890 ca         1 6W3      -0.159000
      7 CAM          3.3220     0.0000     0.0000 cc         1 6W3      -0.138000
      8 CAN          1.7910     0.0000     3.1830 cc         1 6W3      -0.134000
      9 CAO          4.6280    -4.1500    11.9650 c3         1 6W3      -0.089400
     10 CAP          4.3860    -1.7610    11.2860 c3         1 6W3      -0.089400
     11 CAQ          6.0710    -4.1110    11.4580 c3         1 6W3       0.165300
     12 NBG          6.6050    -2.7500    11.6000 n3         1 6W3      -0.732600
     13 CAA          8.0320    -2.7050    11.2520 c3         1 6W3       0.153100
     14 CAR          5.8370    -1.7910    10.7970 c3         1 6W3       0.165300
     15 CBF          3.7820    -3.1620    11.1580 c3         1 6W3       0.152100
     16 CAZ          1.3690    -2.7020    10.8390 ca         1 6W3       0.118100
     17 CAJ          0.7230    -1.7930     8.7170 ca         1 6W3      -0.150500
     18 CAK          0.0350    -2.7770    11.2140 ca         1 6W3      -0.159000
     19 CAY         -0.6100    -1.8670     9.0920 ca         1 6W3       0.100100
     20 OAU         -1.5820    -1.4580     8.2330 os         1 6W3      -0.328900
     21 CBA         -2.3620    -0.5570     6.1530 ca         1 6W3      -0.123300
     22 CAG         -3.6300    -0.7000     6.6820 ca         1 6W3      -0.087000
     23 CBB         -2.2000    -0.0420     4.8730 ca         1 6W3       0.057600
     24 NAT         -0.9180     0.1030     4.3340 ns         1 6W3      -0.466100
     25 OAC         -1.6900    -0.0920     2.2590 o          1 6W3      -0.607100
     26 CBC          0.6270     0.0000     2.4530 cd         1 6W3      -0.144900
     27 CBD          2.8630    -0.0000     2.2730 cd         1 6W3      -0.045100
     28 SAW          4.6220     0.0010     2.1890 ss         1 6W3      -0.148800
     29 CAF          4.5770     0.0000     0.4330 cd         1 6W3      -0.048100
     30 CBE          2.3380     0.0000     0.9930 cc         1 6W3      -0.060300
     31 NBH          0.9530     0.0000     1.1130 na         1 6W3      -0.013100
     32 H1          -0.6590    -0.8550     0.0890 h1         1 6W3       0.060700
     33 H2          -0.5850     0.9110     0.0250 h1         1 6W3       0.060700
     34 H3           0.5400    -0.0560    -0.9380 h1         1 6W3       0.060700
     35 H4          -5.7300    -0.4410     6.3570 ha         1 6W3       0.132000
     36 H5          -5.4470     0.4730     4.0860 ha         1 6W3       0.134000
     37 H6          -3.1890     0.7300     3.1320 ha         1 6W3       0.174000
     38 H7          -1.9930    -2.4180    10.6350 ha         1 6W3       0.138000
     39 H8           2.7520    -2.1510     9.2950 ha         1 6W3       0.142000
     40 H9           3.0760    -0.0000    -1.0550 ha         1 6W3       0.145000
     41 H10          1.8680     0.1120     4.2580 ha         1 6W3       0.147000
     42 H12          4.2300    -5.1500    11.8420 hc         1 6W3       0.064200
     43 H13          4.3620    -1.4510    12.3240 hc         1 6W3       0.064200
     44 H14          3.8160    -1.0660    10.6810 hc         1 6W3       0.064200
     45 H15          6.6750    -4.7970    12.0390 h1         1 6W3       0.036700
     46 H16          6.0930    -4.3980    10.4130 h1         1 6W3       0.036700
     47 H18          8.1600    -2.9900    10.2150 h1         1 6W3       0.033367
     48 H19          8.5800    -3.3910    11.8860 h1         1 6W3       0.033367
     49 H20          8.4070    -1.6990    11.4000 h1         1 6W3       0.033367
     50 H21          6.2720    -0.8050    10.9010 h1         1 6W3       0.036700
     51 H22          5.8590    -2.0940     9.7570 h1         1 6W3       0.036700
     52 H23          3.7630    -3.4680    10.1190 h1         1 6W3       0.052700
     53 H24          0.9910    -1.4080     7.7410 ha         1 6W3       0.138000
     54 H25         -0.2320    -3.1620    12.1910 ha         1 6W3       0.142000
     55 H28         -3.7580    -1.1020     7.6800 ha         1 6W3       0.153000
     56 H29         -0.1490     0.3390     4.9300 hn         1 6W3       0.328500
     57 H31          5.4520    -0.0000    -0.2060 h4         1 6W3       0.174000
     58 CAX         -0.7310     0.0000     3.0030 c          1 6W3       0.706700
     59 CAS         -1.1570    -0.9610     6.9620 c3         1 6W3       0.190700
     60 OAV          2.3400    -3.1130    11.6980 os         1 6W3      -0.348900
     61 H11          4.6060    -3.8730    13.0120 hc         1 6W3       0.064200
     62 H26         -0.5140    -0.1000     7.1080 h1         1 6W3       0.039700
     63 H27         -0.6110    -1.7340     6.4360 h1         1 6W3       0.039700
@<TRIPOS>BOND
     1     1    31 1   
     2     2     3 ar  
     3     2    22 ar  
     4     3     4 ar  
     5     4    23 ar  
     6     5    18 ar  
     7     5    19 ar  
     8     6    16 ar  
     9     6    17 ar  
    10     7    29 2   
    11     7    30 1   
    12     8    26 2   
    13     8    27 1   
    14     9    11 1   
    15     9    15 1   
    16    10    14 1   
    17    10    15 1   
    18    11    12 1   
    19    12    13 1   
    20    12    14 1   
    21    15    60 1   
    22    60    16 1   
    23    16    18 ar  
    24    17    19 ar  
    25    19    20 1   
    26    20    59 1   
    27    59    21 1   
    28    21    22 ar  
    29    21    23 ar  
    30    23    24 1   
    31    24    58 1   
    32    58    25 2   
    33    58    26 1   
    34    26    31 1   
    35    27    28 1   
    36    27    30 2   
    37    28    29 1   
    38    30    31 1   
    39     1    32 1   
    40     1    33 1   
    41     1    34 1   
    42     2    35 1   
    43     3    36 1   
    44     4    37 1   
    45     5    38 1   
    46     6    39 1   
    47     7    40 1   
    48     8    41 1   
    49     9    61 1   
    50     9    42 1   
    51    10    43 1   
    52    10    44 1   
    53    11    45 1   
    54    11    46 1   
    55    13    47 1   
    56    13    48 1   
    57    13    49 1   
    58    14    50 1   
    59    14    51 1   
    60    15    52 1   
    61    17    53 1   
    62    18    54 1   
    63    59    62 1   
    64    59    63 1   
    65    22    55 1   
    66    24    56 1   
    67    29    57 1   
@<TRIPOS>SUBSTRUCTURE
     1 6W3         1 TEMP              0 ****  ****    0 ROOT
