@<TRIPOS>MOLECULE
6W3
   63    67     1     0     0
SMALL
bcc


@<TRIPOS>ATOM
      1 CAB          0.0000     0.0000     0.0000 c3         1 6W3      -0.035400
      2 CAD         -4.7360    -0.3290     5.9390 ca         1 6W3      -0.112000
      3 CAE         -4.5780     0.1840     4.6650 ca         1 6W3      -0.082000
      4 CAH         -3.3130     0.3280     4.1300 ca         1 6W3      -0.116000
      5 CAI         -0.9520    -2.3600    10.3420 ca         1 6W3      -0.131500
      6 CAL          1.7110    -2.2100     9.5890 ca         1 6W3      -0.141500
      7 CAM          3.3220     0.0000     0.0000 cc         1 6W3      -0.084000
      8 CAN          1.7910     0.0000     3.1830 cc         1 6W3      -0.100000
      9 CAO          4.6280    -4.1500    11.9650 c3         1 6W3      -0.045400
     10 CAP          4.3860    -1.7610    11.2860 c3         1 6W3      -0.045400
     11 CAQ          6.0710    -4.1110    11.4580 c3         1 6W3       0.160800
     12 NBG          6.6050    -2.7500    11.6000 n3         1 6W3      -0.545600
     13 CAA          8.0320    -2.7050    11.2520 c3         1 6W3       0.188100
     14 CAR          5.8370    -1.7910    10.7970 c3         1 6W3       0.160800
     15 CBF          3.7820    -3.1620    11.1580 c3         1 6W3       0.179100
     16 CAZ          1.3690    -2.7020    10.8390 ca         1 6W3       0.127100
     17 CAJ          0.7230    -1.7930     8.7170 ca         1 6W3      -0.131500
     18 CAK          0.0350    -2.7770    11.2140 ca         1 6W3      -0.141500
     19 CAY         -0.6100    -1.8670     9.0920 ca         1 6W3       0.105100
     20 OAU         -1.5820    -1.4580     8.2330 os         1 6W3      -0.301900
     21 CBA         -2.3620    -0.5570     6.1530 ca         1 6W3      -0.135300
     22 CAG         -3.6300    -0.7000     6.6820 ca         1 6W3      -0.066000
     23 CBB         -2.2000    -0.0420     4.8730 ca         1 6W3      -0.091400
     24 NAT         -0.9180     0.1030     4.3340 ns         1 6W3      -0.016100
     25 OAC         -1.6900    -0.0920     2.2590 o          1 6W3      -0.660100
     26 CBC          0.6270     0.0000     2.4530 cd         1 6W3      -0.352900
     27 CBD          2.8630    -0.0000     2.2730 cd         1 6W3       0.007900
     28 SAW          4.6220     0.0010     2.1890 ss         1 6W3      -0.272800
     29 CAF          4.5770     0.0000     0.4330 cd         1 6W3       0.022900
     30 CBE          2.3380     0.0000     0.9930 cc         1 6W3      -0.266300
     31 NBH          0.9530     0.0000     1.1130 na         1 6W3       0.520900
     32 H1          -0.6590    -0.8550     0.0890 h1         1 6W3       0.034367
     33 H2          -0.5850     0.9110     0.0250 h1         1 6W3       0.034367
     34 H3           0.5400    -0.0560    -0.9380 h1         1 6W3       0.034367
     35 H4          -5.7300    -0.4410     6.3570 ha         1 6W3       0.104000
     36 H5          -5.4470     0.4730     4.0860 ha         1 6W3       0.104000
     37 H6          -3.1890     0.7300     3.1320 ha         1 6W3       0.157000
     38 H7          -1.9930    -2.4180    10.6350 ha         1 6W3       0.114500
     39 H8           2.7520    -2.1510     9.2950 ha         1 6W3       0.120000
     40 H9           3.0760    -0.0000    -1.0550 ha         1 6W3       0.115000
     41 H10          1.8680     0.1120     4.2580 ha         1 6W3       0.125000
     42 H12          4.2300    -5.1500    11.8420 hc         1 6W3       0.033450
     43 H13          4.3620    -1.4510    12.3240 hc         1 6W3       0.033450
     44 H14          3.8160    -1.0660    10.6810 hc         1 6W3       0.033450
     45 H15          6.6750    -4.7970    12.0390 h1         1 6W3       0.009450
     46 H16          6.0930    -4.3980    10.4130 h1         1 6W3       0.009450
     47 H18          8.1600    -2.9900    10.2150 h1         1 6W3       0.000700
     48 H19          8.5800    -3.3910    11.8860 h1         1 6W3       0.000700
     49 H20          8.4070    -1.6990    11.4000 h1         1 6W3       0.000700
     50 H21          6.2720    -0.8050    10.9010 h1         1 6W3       0.009450
     51 H22          5.8590    -2.0940     9.7570 h1         1 6W3       0.009450
     52 H23          3.7630    -3.4680    10.1190 h1         1 6W3       0.022700
     53 H24          0.9910    -1.4080     7.7410 ha         1 6W3       0.114500
     54 H25         -0.2320    -3.1620    12.1910 ha         1 6W3       0.120000
     55 H28         -3.7580    -1.1020     7.6800 ha         1 6W3       0.123000
     56 H29         -0.1490     0.3390     4.9300 hn         1 6W3       0.173500
     57 H31          5.4520    -0.0000    -0.2060 h4         1 6W3       0.149000
     58 CAX         -0.7310     0.0000     3.0030 c          1 6W3       0.626700
     59 CAS         -1.1570    -0.9610     6.9620 c3         1 6W3       0.266700
     60 OAV          2.3400    -3.1130    11.6980 os         1 6W3      -0.319900
     61 H11          4.6060    -3.8730    13.0120 hc         1 6W3       0.033450
     62 H26         -0.5140    -0.1000     7.1080 h1         1 6W3       0.004200
     63 H27         -0.6110    -1.7340     6.4360 h1         1 6W3       0.004200
@<TRIPOS>BOND
     1     1    31 1   
     2     1    32 1   
     3     1    33 1   
     4     1    34 1   
     5     2     3 ar  
     6     2    22 ar  
     7     2    35 1   
     8     3     4 ar  
     9     3    36 1   
    10     4    23 ar  
    11     4    37 1   
    12     5    18 ar  
    13     5    19 ar  
    14     5    38 1   
    15     6    16 ar  
    16     6    17 ar  
    17     6    39 1   
    18     7    29 2   
    19     7    30 1   
    20     7    40 1   
    21     8    26 2   
    22     8    27 1   
    23     8    41 1   
    24     9    11 1   
    25     9    15 1   
    26     9    42 1   
    27     9    61 1   
    28    10    14 1   
    29    10    15 1   
    30    10    43 1   
    31    10    44 1   
    32    11    12 1   
    33    11    45 1   
    34    11    46 1   
    35    12    13 1   
    36    12    14 1   
    37    13    47 1   
    38    13    48 1   
    39    13    49 1   
    40    14    50 1   
    41    14    51 1   
    42    15    52 1   
    43    15    60 1   
    44    16    18 ar  
    45    16    60 1   
    46    17    19 ar  
    47    17    53 1   
    48    18    54 1   
    49    19    20 1   
    50    20    59 1   
    51    21    22 ar  
    52    21    23 ar  
    53    21    59 1   
    54    22    55 1   
    55    23    24 1   
    56    24    56 1   
    57    24    58 1   
    58    25    58 2   
    59    26    31 1   
    60    26    58 1   
    61    27    28 1   
    62    27    30 2   
    63    28    29 1   
    64    29    57 1   
    65    30    31 1   
    66    59    62 1   
    67    59    63 1   
@<TRIPOS>SUBSTRUCTURE
     1 6W3         1 TEMP              0 ****  ****    0 ROOT
