@<TRIPOS>MOLECULE
molecule
   75    80     1     0     0
SMALL
bcc


@<TRIPOS>ATOM
      1 N1           0.0000     0.0000     0.0000 na         1 6W4       0.121400
      2 N3           0.6040    -0.0020     2.0220 nc         1 6W4      -0.340000
      3 C4           1.7300     0.0000     1.3000 cc         1 6W4       0.329600
      4 C5           1.3530     0.0000     0.0000 cd         1 6W4      -0.308600
      5 C7           3.1410     0.0030     1.8290 cx         1 6W4      -0.144000
      6 C15         -0.8580     0.0000    -1.1880 c3         1 6W4       0.055000
      7 C17         -0.1420    -0.6610    -2.3900 c3         1 6W4       0.073000
      8 C21         -1.3610     1.2250    -3.2150 c3         1 6W4       0.038700
      9 C26         -0.7110     2.3190    -4.0210 c          1 6W4       0.653100
     10 N2          -0.4030    -0.0050     1.2220 nd         1 6W4      -0.187800
     11 C9           3.8470    -1.3470     1.9670 cx         1 6W4      -0.132400
     12 C12          4.2610    -0.3760     0.8580 cx         1 6W4      -0.132400
     13 N20         -0.7850    -0.0770    -3.5820 n          1 6W4      -0.469800
     14 C23         -1.0810     1.4430    -1.7130 c3         1 6W4      -0.097400
     15 O27          0.3520     2.1180    -4.5710 o          1 6W4      -0.607100
     16 N28         -1.3110     3.5210    -4.1330 ns         1 6W4      -0.568900
     17 C30         -0.6780     4.5850    -4.9170 c3         1 6W4       0.120000
     18 C33         -1.5590     5.8360    -4.8830 c3         1 6W4       0.008900
     19 C35         -1.6240     6.3650    -3.4740 ca         1 6W4      -0.085300
     20 C36         -2.8500     6.5990    -2.8790 ca         1 6W4      -0.123500
     21 C38         -2.9090     7.0840    -1.5860 ca         1 6W4      -0.122750
     22 C40         -1.7430     7.3360    -0.8880 ca         1 6W4      -0.122500
     23 C42         -0.5170     7.1020    -1.4820 ca         1 6W4      -0.122750
     24 C44         -0.4570     6.6120    -2.7730 ca         1 6W4      -0.123500
     25 C46         -0.9720     6.8880    -5.7880 ca         1 6W4      -0.085300
     26 C47          0.3580     7.2430    -5.6630 ca         1 6W4      -0.123500
     27 C49          0.8960     8.2090    -6.4930 ca         1 6W4      -0.122750
     28 C51          0.1040     8.8180    -7.4490 ca         1 6W4      -0.122500
     29 C53         -1.2250     8.4630    -7.5750 ca         1 6W4      -0.122750
     30 C55         -1.7620     7.4930    -6.7470 ca         1 6W4      -0.123500
     31 C57         -0.8360    -0.6420    -4.8040 c          1 6W4       0.696700
     32 O58         -1.5010    -0.1300    -5.6830 o          1 6W4      -0.561100
     33 C59         -0.0830    -1.8840    -5.0760 ca         1 6W4      -0.078600
     34 C60         -0.4170    -2.6820    -6.1720 ca         1 6W4      -0.085000
     35 C62          0.2900    -3.8400    -6.4200 ca         1 6W4      -0.109500
     36 C64          1.3290    -4.2120    -5.5860 ca         1 6W4      -0.184300
     37 C65          1.6650    -3.4270    -4.4970 ca         1 6W4      -0.109500
     38 C67          0.9690    -2.2640    -4.2410 ca         1 6W4      -0.085000
     39 C69          2.0960    -5.4800    -5.8620 c3         1 6W4       0.158100
     40 N72          3.2350    -5.1800    -6.7400 nz         1 6W4      -0.809600
     41 H1           2.0040     0.0020    -0.8660 h4         1 6W4       0.178000
     42 H2           3.4180     0.7370     2.5760 hc         1 6W4       0.108700
     43 H3          -1.8050    -0.4870    -0.9890 h1         1 6W4       0.110700
     44 H4           0.9140    -0.4200    -2.3770 h1         1 6W4       0.063200
     45 H5          -0.2910    -1.7340    -2.3720 h1         1 6W4       0.063200
     46 H6          -2.4300     1.2160    -3.3910 h1         1 6W4       0.084700
     47 H7           4.5380    -1.4310     2.7970 hc         1 6W4       0.075700
     48 H8           3.2750    -2.2090     1.6440 hc         1 6W4       0.075700
     49 H9           5.2050     0.1330     1.0120 hc         1 6W4       0.075700
     50 H10          3.9420    -0.6450    -0.1410 hc         1 6W4       0.075700
     51 H11         -1.9360     1.8980    -1.2270 hc         1 6W4       0.088200
     52 H12         -0.1890     2.0420    -1.5740 hc         1 6W4       0.088200
     53 H13         -2.2130     3.6690    -3.7260 hn         1 6W4       0.320500
     54 H14          0.2930     4.8150    -4.4970 h1         1 6W4       0.062200
     55 H15         -0.5590     4.2550    -5.9420 h1         1 6W4       0.062200
     56 H16         -2.5570     5.5850    -5.2210 hc         1 6W4       0.064700
     57 H17         -3.7640     6.4010    -3.4260 ha         1 6W4       0.130250
     58 H18         -3.8700     7.2670    -1.1200 ha         1 6W4       0.134250
     59 H19         -1.7900     7.7190     0.1250 ha         1 6W4       0.135000
     60 H20          0.3970     7.2970    -0.9340 ha         1 6W4       0.134250
     61 H21          0.5040     6.4280    -3.2390 ha         1 6W4       0.130250
     62 H22          0.9790     6.7660    -4.9140 ha         1 6W4       0.130250
     63 H23          1.9390     8.4880    -6.3960 ha         1 6W4       0.134250
     64 H24          0.5260     9.5760    -8.0980 ha         1 6W4       0.135000
     65 H25         -1.8450     8.9380    -8.3250 ha         1 6W4       0.134250
     66 H26         -2.8040     7.2140    -6.8450 ha         1 6W4       0.130250
     67 H27         -1.2300    -2.3920    -6.8260 ha         1 6W4       0.178000
     68 H28          0.0310    -4.4590    -7.2700 ha         1 6W4       0.139000
     69 H29          2.4800    -3.7230    -3.8480 ha         1 6W4       0.139000
     70 H30          1.2340    -1.6500    -3.3880 ha         1 6W4       0.178000
     71 H31          1.4450    -6.1980    -6.3450 hx         1 6W4       0.113200
     72 H32          2.4590    -5.8930    -4.9280 hx         1 6W4       0.113200
     73 H33          2.8990    -4.7960    -7.6010 hn         1 6W4       0.456133
     74 H34          3.7430    -6.0220    -6.9260 hn         1 6W4       0.456133
     75 H723         3.8370    -4.5190    -6.2920 hn         1 6W4       0.456133
@<TRIPOS>BOND
     1    40    39 1   
     2    39    36 1   
     3    36    35 ar  
     4    36    37 ar  
     5    35    34 ar  
     6    37    38 ar  
     7    34    33 ar  
     8    38    33 ar  
     9     2    10 2   
    10     2     3 1   
    11    33    31 1   
    12    10     1 1   
    13     7    13 1   
    14     7     6 1   
    15     3     5 1   
    16     3     4 2   
    17     1     6 1   
    18     1     4 1   
    19    31    13 1   
    20    31    32 2   
    21     5    11 1   
    22     5    12 1   
    23    13     8 1   
    24     6    14 1   
    25    11    12 1   
    26    15     9 2   
    27    14     8 1   
    28     8     9 1   
    29     9    16 1   
    30    16    17 1   
    31    17    18 1   
    32    21    20 ar  
    33    21    22 ar  
    34    20    19 ar  
    35    22    23 ar  
    36    19    18 1   
    37    19    24 ar  
    38    18    25 1   
    39    23    24 ar  
    40    25    30 ar  
    41    25    26 ar  
    42    30    29 ar  
    43    26    27 ar  
    44    29    28 ar  
    45    27    28 ar  
    46     4    41 1   
    47     5    42 1   
    48     6    43 1   
    49     7    44 1   
    50     7    45 1   
    51     8    46 1   
    52    11    47 1   
    53    11    48 1   
    54    12    49 1   
    55    12    50 1   
    56    14    51 1   
    57    14    52 1   
    58    16    53 1   
    59    17    54 1   
    60    17    55 1   
    61    18    56 1   
    62    20    57 1   
    63    21    58 1   
    64    22    59 1   
    65    23    60 1   
    66    24    61 1   
    67    26    62 1   
    68    27    63 1   
    69    28    64 1   
    70    29    65 1   
    71    30    66 1   
    72    34    67 1   
    73    35    68 1   
    74    37    69 1   
    75    38    70 1   
    76    39    71 1   
    77    39    72 1   
    78    40    73 1   
    79    40    74 1   
    80    75    40 1   
@<TRIPOS>SUBSTRUCTURE
     1 6W4         1 TEMP              0 ****  ****    0 ROOT
