@<TRIPOS>MOLECULE
6W5
   50    49     1     0     0
SMALL
bcc


@<TRIPOS>ATOM
      1 C13          0.0000     0.0000     0.0000 c3         1 6W5      -0.090000
      2 C26          7.4820    13.3880     0.7320 c2         1 6W5      -0.101000
      3 C01          6.9200    12.4010     0.0380 ce         1 6W5      -0.249200
      4 C02          6.5330    11.1540     0.7150 c          1 6W5       0.574300
      5 N03          5.9630    10.1550     0.0120 ns         1 6W5      -0.189900
      6 C04          5.5770     8.9140     0.6860 c3         1 6W5       0.036000
      7 C05          4.9590     7.9510    -0.3310 c3         1 6W5       0.040000
      8 N06          4.5720     6.7100     0.3440 ns         1 6W5      -0.210900
      9 C07          4.0030     5.7110    -0.3600 c          1 6W5       0.579100
     10 C08          3.6060     4.4330     0.3340 c3         1 6W5      -0.109400
     11 C09          2.9880     3.4710    -0.6830 c3         1 6W5       0.065000
     12 N10          2.6020     2.2290    -0.0080 ns         1 6W5      -0.225900
     13 C11          2.0320     1.2300    -0.7120 c          1 6W5       0.573100
     14 C12          1.5310     0.0000     0.0000 c3         1 6W5       0.128100
     15 C14         -0.5100    -1.1680     0.8490 c3         1 6W5       0.293400
     16 O15         -1.9390    -1.1670     0.8480 os         1 6W5      -0.474200
     17 P16         -2.8150    -2.2600     1.6420 p5         1 6W5       0.683900
     18 O17         -2.4130    -3.6190     1.2160 o          1 6W5      -0.735167
     19 C18         -0.5100     1.3180     0.5870 c3         1 6W5       0.003900
     20 C19         -0.5100    -0.1510    -1.4350 c3         1 6W5       0.003900
     21 O20         -2.5690    -2.0980     3.2250 o          1 6W5      -0.735167
     22 O22          2.0070     0.0000     1.3470 oh         1 6W5      -0.584800
     23 O23          1.9240     1.3200    -1.9150 o          1 6W5      -0.663100
     24 O24          3.8110     5.8400    -1.5490 o          1 6W5      -0.638100
     25 O25          6.7260    11.0250     1.9080 o          1 6W5      -0.667100
     26 O1          -4.3760    -2.0350     1.3160 o          1 6W5      -0.735167
     27 H1           7.6540    13.2730     1.7950 ha         1 6W5       0.088000
     28 H2           7.7670    14.3060     0.2330 ha         1 6W5       0.088000
     29 H3           6.7480    12.5160    -1.0260 ha         1 6W5       0.099000
     30 H4           5.8170    10.2560    -0.9730 hn         1 6W5       0.174500
     31 H5           4.8530     9.1340     1.4620 h1         1 6W5       0.027200
     32 H6           6.4530     8.4560     1.1300 h1         1 6W5       0.027200
     33 H7           4.0830     8.4090    -0.7740 h1         1 6W5       0.024700
     34 H8           5.6830     7.7310    -1.1060 h1         1 6W5       0.024700
     35 H9           4.7560     6.5920     1.3200 hn         1 6W5       0.177500
     36 H10          2.8820     4.6530     1.1090 hc         1 6W5       0.030200
     37 H11          4.4820     3.9750     0.7780 hc         1 6W5       0.030200
     38 H12          3.7130     3.2510    -1.4580 h1         1 6W5       0.033200
     39 H13          2.1120     3.9290    -1.1260 h1         1 6W5       0.033200
     40 H14          2.8050     2.1040     0.9640 hn         1 6W5       0.190500
     41 H15          1.8920    -0.8850    -0.5100 h1         1 6W5       0.021700
     42 H16         -0.1480    -2.1010     0.4330 h1         1 6W5      -0.024800
     43 H17         -0.1490    -1.0610     1.8640 h1         1 6W5      -0.024800
     44 H18         -0.2010     1.3950     1.6230 hc         1 6W5       0.004867
     45 H19         -0.0980     2.1470     0.0250 hc         1 6W5       0.004867
     46 H20         -1.5910     1.3440     0.5300 hc         1 6W5       0.004867
     47 H21         -1.4620    -0.6690    -1.4270 hc         1 6W5       0.004867
     48 H22         -0.6360     0.8290    -1.8780 hc         1 6W5       0.004867
     49 H23          0.2060    -0.7210    -2.0150 hc         1 6W5       0.004867
     50 H25          2.6740    -0.6590     1.4450 ho         1 6W5       0.377000
@<TRIPOS>BOND
     1     1    14 1   
     2     1    15 1   
     3     1    19 1   
     4     1    20 1   
     5     2     3 2   
     6     2    27 1   
     7     2    28 1   
     8     3     4 1   
     9     3    29 1   
    10     4     5 1   
    11     4    25 2   
    12     5     6 1   
    13     5    30 1   
    14     6     7 1   
    15     6    31 1   
    16     6    32 1   
    17     7     8 1   
    18     7    33 1   
    19     7    34 1   
    20     8     9 1   
    21     8    35 1   
    22     9    10 1   
    23     9    24 2   
    24    10    11 1   
    25    10    36 1   
    26    10    37 1   
    27    11    12 1   
    28    11    38 1   
    29    11    39 1   
    30    12    13 1   
    31    12    40 1   
    32    13    14 1   
    33    13    23 2   
    34    14    22 1   
    35    14    41 1   
    36    15    16 1   
    37    15    42 1   
    38    15    43 1   
    39    16    17 1   
    40    17    18 1   
    41    17    21 1   
    42    17    26 1   
    43    19    44 1   
    44    19    45 1   
    45    19    46 1   
    46    20    47 1   
    47    20    48 1   
    48    20    49 1   
    49    22    50 1   
@<TRIPOS>SUBSTRUCTURE
     1 6W5         1 TEMP              0 ****  ****    0 ROOT
