@<TRIPOS>MOLECULE
molecule
   50    49     1     0     0
SMALL
bcc


@<TRIPOS>ATOM
      1 C13          0.0000     0.0000     0.0000 c3         1 6W5      -0.069000
      2 C26          7.4820    13.3880     0.7320 c2         1 6W5      -0.139000
      3 C01          6.9200    12.4010     0.0380 ce         1 6W5      -0.245200
      4 C02          6.5330    11.1540     0.7150 c          1 6W5       0.661300
      5 N03          5.9630    10.1550     0.0120 ns         1 6W5      -0.578900
      6 C04          5.5770     8.9140     0.6860 c3         1 6W5       0.093000
      7 C05          4.9590     7.9510    -0.3310 c3         1 6W5       0.097000
      8 N06          4.5720     6.7100     0.3440 ns         1 6W5      -0.595900
      9 C07          4.0030     5.7110    -0.3600 c          1 6W5       0.664100
     10 C08          3.6060     4.4330     0.3340 c3         1 6W5      -0.175400
     11 C09          2.9880     3.4710    -0.6830 c3         1 6W5       0.128000
     12 N10          2.6020     2.2290    -0.0080 ns         1 6W5      -0.597900
     13 C11          2.0320     1.2300    -0.7120 c          1 6W5       0.656100
     14 C12          1.5310     0.0000     0.0000 c3         1 6W5       0.083100
     15 C14         -0.5100    -1.1680     0.8490 c3         1 6W5       0.233400
     16 O15         -1.9390    -1.1670     0.8480 os         1 6W5      -0.577200
     17 P16         -2.8150    -2.2600     1.6420 p5         1 6W5       1.178900
     18 O17         -2.4130    -3.6190     1.2160 o          1 6W5      -0.909500
     19 C18         -0.5100     1.3180     0.5870 c3         1 6W5      -0.073100
     20 C19         -0.5100    -0.1510    -1.4350 c3         1 6W5      -0.073100
     21 O20         -2.5690    -2.0980     3.2250 o          1 6W5      -0.909500
     22 O22          2.0070     0.0000     1.3470 oh         1 6W5      -0.605800
     23 O23          1.9240     1.3200    -1.9150 o          1 6W5      -0.624100
     24 O24          3.8110     5.8400    -1.5490 o          1 6W5      -0.601100
     25 O25          6.7260    11.0250     1.9080 o          1 6W5      -0.615100
     26 O1          -4.3760    -2.0350     1.3160 o          1 6W5      -0.909500
     27 H1           7.7670    14.3060     0.2330 ha         1 6W5       0.127000
     28 H2           7.6540    13.2730     1.7950 ha         1 6W5       0.127000
     29 H3           6.7480    12.5160    -1.0260 ha         1 6W5       0.125000
     30 H4           5.8180    10.2560    -0.9730 hn         1 6W5       0.317500
     31 H5           6.4530     8.4560     1.1300 h1         1 6W5       0.057200
     32 H6           4.8530     9.1340     1.4620 h1         1 6W5       0.057200
     33 H7           5.6830     7.7310    -1.1060 h1         1 6W5       0.053700
     34 H8           4.0830     8.4090    -0.7740 h1         1 6W5       0.053700
     35 H9           4.7580     6.5920     1.3200 hn         1 6W5       0.316500
     36 H10          2.8820     4.6530     1.1090 hc         1 6W5       0.065200
     37 H11          4.4820     3.9750     0.7780 hc         1 6W5       0.065200
     38 H12          3.7120     3.2520    -1.4580 h1         1 6W5       0.060700
     39 H13          2.1120     3.9290    -1.1260 h1         1 6W5       0.060700
     40 H14          2.7650     2.1210     0.9730 hn         1 6W5       0.325500
     41 H15          1.8920    -0.8850    -0.5100 h1         1 6W5       0.058700
     42 H16         -0.1480    -2.1010     0.4330 h1         1 6W5       0.016200
     43 H17         -0.1490    -1.0600     1.8640 h1         1 6W5       0.016200
     44 H18         -1.5910     1.3470     0.5230 hc         1 6W5       0.035200
     45 H19         -0.2070     1.3920     1.6250 hc         1 6W5       0.035200
     46 H20         -0.0920     2.1470     0.0290 hc         1 6W5       0.035200
     47 H21          0.1100    -0.8640    -1.9650 hc         1 6W5       0.035200
     48 H22         -1.5340    -0.5050    -1.4180 hc         1 6W5       0.035200
     49 H23         -0.4680     0.8080    -1.9360 hc         1 6W5       0.035200
     50 H25          2.6740    -0.6590     1.4440 ho         1 6W5       0.391000
@<TRIPOS>BOND
     1     2     3 2
     2     3     4 1
     3     4    25 2
     4     4     5 1
     5    19     1 1
     6     5     6 1
     7    20     1 1
     8     1    15 1
     9     1    14 1
    10     6     7 1
    11    22    14 1
    12    15    16 1
    13    12    11 1
    14    12    13 1
    15    14    13 1
    16    24     9 2
    17     7     8 1
    18    11    10 1
    19    13    23 2
    20    16    17 1
    21     9     8 1
    22     9    10 1
    23    17    18 1
    24    17    21 1
    25    17    26 1
    26     2    27 1
    27     2    28 1
    28     3    29 1
    29     5    30 1
    30     6    31 1
    31     6    32 1
    32     7    33 1
    33     7    34 1
    34     8    35 1
    35    10    36 1
    36    10    37 1
    37    11    38 1
    38    11    39 1
    39    12    40 1
    40    14    41 1
    41    15    42 1
    42    15    43 1
    43    19    44 1
    44    19    45 1
    45    19    46 1
    46    20    47 1
    47    20    48 1
    48    20    49 1
    49    22    50 1
@<TRIPOS>SUBSTRUCTURE
     1 6W5         1 TEMP              0 ****  ****    0 ROOT
