@<TRIPOS>MOLECULE
molecule
   19    20     1     0     0
SMALL
bcc


@<TRIPOS>ATOM
      1 O01          0.0000     0.0000     0.0000 o          1 6W6      -0.812800
      2 C02          1.2180     0.0000     0.0000 c          1 6W6       0.882200
      3 O03          1.8920     0.0000     1.1690 o          1 6W6      -0.812800
      4 C04          1.9260    -0.0060    -1.2260 cc         1 6W6       0.029300
      5 C05          1.3550    -0.0120    -2.4760 cd         1 6W6      -0.098200
      6 N06         -0.0260    -0.0140    -2.6950 na         1 6W6       0.092800
      7 C07         -0.8130    -1.1260    -2.8150 cc         1 6W6       0.044600
      8 Cl1         -0.2710    -2.7720    -2.7220 cl         1 6W6      -0.081900
      9 C09         -2.0840    -0.7210    -3.0170 cd         1 6W6      -0.200000
     10 C10         -2.0860     0.6890    -3.0230 cd         1 6W6      -0.200000
     11 C11         -0.8160     1.0960    -2.8190 cc         1 6W6       0.044600
     12 Cl2         -0.2760     2.7440    -2.7320 cl         1 6W6      -0.081900
     13 C13          2.2870    -0.0160    -3.4950 cd         1 6W6      -0.144000
     14 C14          3.5620    -0.0130    -3.0960 cc         1 6W6      -0.179100
     15 S15          3.6750     0.0000    -1.3940 ss         1 6W6      -0.049800
     16 H091        -2.9470    -1.3630    -3.1520 ha         1 6W6       0.143000
     17 H101        -2.9490     1.3280    -3.1610 ha         1 6W6       0.143000
     18 H131         2.0060    -0.0220    -4.5410 ha         1 6W6       0.133000
     19 H141         4.4140    -0.0150    -3.7660 h4         1 6W6       0.149000
@<TRIPOS>BOND
     1     1     2 1   
     2     2     3 1   
     3     2     4 1   
     4     4     5 2   
     5     4    15 1   
     6     5     6 1   
     7     5    13 1   
     8     6     7 1   
     9     6    11 1   
    10     7     8 1   
    11     7     9 2   
    12     9    10 1   
    13    10    11 2   
    14    11    12 1   
    15    13    14 2   
    16    14    15 1   
    17     9    16 1   
    18    10    17 1   
    19    13    18 1   
    20    14    19 1   
@<TRIPOS>SUBSTRUCTURE
     1 6W6         1 TEMP              0 ****  ****    0 ROOT
