@<TRIPOS>MOLECULE
molecule
   33    35     1     0     0
SMALL
bcc


@<TRIPOS>ATOM
      1 C4           0.0000     0.0000     0.0000 cc         1 6W7       0.101800
      2 C5           1.3990     0.0000     0.0000 cd         1 6W7       0.216800
      3 C6           2.0730     0.0000     1.2470 c          1 6W7       0.635000
      4 C8           0.7560     0.0010    -2.0680 cc         1 6W7       0.459400
      5 N1           1.3290    -0.0010     2.3750 ns         1 6W7      -0.474400
      6 N3          -0.6610    -0.0060     1.1660 nd         1 6W7      -0.590100
      7 OAC         -1.9750     5.7630    -1.6930 o          1 6W7      -0.902167
      8 PAU         -1.7140     4.1970    -1.4210 p5         1 6W7       1.028700
      9 OAD         -0.7020     4.0440    -0.3510 o          1 6W7      -0.902167
     10 OAB         -3.0760     3.4610    -0.9790 o          1 6W7      -0.902167
     11 CAI         -1.0900     3.4480    -2.9610 c3         1 6W7      -0.042800
     12 CAR         -2.0100     1.2520    -2.6820 c3         1 6W7       0.119100
     13 CAG         -2.3630     0.7100    -4.0830 c3         1 6W7       0.097800
     14 NAL         -2.8670    -0.6660    -3.8350 n7         1 6W7      -0.793200
     15 CAH         -1.9760    -1.1950    -2.7720 c3         1 6W7       0.113800
     16 CAS         -1.7550    -0.0010    -1.8190 c3         1 6W7       0.054000
     17 N9          -0.3790     0.0000    -1.3150 na         1 6W7      -0.124900
     18 C2          -0.0260    -0.0030     2.3040 cc         1 6W7       0.475800
     19 O6           3.2910     0.0000     1.3000 o          1 6W7      -0.672500
     20 N7           1.8010     0.0020    -1.2920 nd         1 6W7      -0.671000
     21 H1           0.7840     0.0010    -3.1510 h5         1 6W7       0.064100
     22 H2           1.7800     0.0020     3.2680 hn         1 6W7       0.315500
     23 H5          -1.8300     3.5600    -3.7430 h1         1 6W7       0.021700
     24 H6          -0.1730     3.9440    -3.2580 h1         1 6W7       0.021700
     25 H7          -2.8400     1.8200    -2.2800 h1         1 6W7       0.164700
     26 H8          -1.4800     0.6800    -4.7090 h1         1 6W7       0.038200
     27 H9          -3.1370     1.3170    -4.5380 h1         1 6W7       0.038200
     28 H10         -2.7590    -1.2150    -4.6650 hn         1 6W7       0.316800
     29 H12         -2.4590    -2.0100    -2.2470 h1         1 6W7       0.026700
     30 H13         -1.0330    -1.5170    -3.1970 h1         1 6W7       0.026700
     31 H14         -2.4620    -0.0400    -0.9990 h1         1 6W7       0.115700
     32 H15         -0.5990    -0.0040     3.2230 h5         1 6W7       0.042800
     33 OAN         -0.8320     2.0590    -2.7450 os         1 6W7      -0.419600
@<TRIPOS>BOND
     1    19     3 2   
     2     5     3 1   
     3     5    18 1   
     4     3     2 1   
     5    18     6 2   
     6     2    20 1   
     7     2     1 2   
     8    20     4 2   
     9     6     1 1   
    10     1    17 1   
    11     4    17 1   
    12    17    16 1   
    13    16    12 1   
    14    16    15 1   
    15    11    33 1   
    16    11     8 1   
    17    12    33 1   
    18    12    13 1   
    19     9     8 1   
    20    15    14 1   
    21     8     7 1   
    22     8    10 1   
    23    13    14 1   
    24     4    21 1   
    25     5    22 1   
    26    11    23 1   
    27    11    24 1   
    28    12    25 1   
    29    13    26 1   
    30    13    27 1   
    31    14    28 1   
    32    15    29 1   
    33    15    30 1   
    34    16    31 1   
    35    18    32 1   
@<TRIPOS>SUBSTRUCTURE
     1 6W7         1 TEMP              0 ****  ****    0 ROOT
