@<TRIPOS>MOLECULE
molecule
   46    47     1     0     0
SMALL
bcc


@<TRIPOS>ATOM
      1 C4           0.0000     0.0000     0.0000 cc         1 6W9       0.068800
      2 C5           1.3980     0.0000     0.0000 cd         1 6W9       0.195800
      3 C6           2.0720     0.0000     1.2470 c          1 6W9       0.629000
      4 C8           0.7570     0.0020    -2.0680 cc         1 6W9       0.434400
      5 N1           1.3280     0.0010     2.3760 ns         1 6W9      -0.480400
      6 N3          -0.6620    -0.0010     1.1650 nc         1 6W9      -0.584100
      7 OAD         -9.0910    -1.6990    -0.0760 o          1 6W9      -0.937833
      8 PAZ         -9.5880    -0.4830    -0.7580 p5         1 6W9       1.081700
      9 OAE        -10.9550    -0.8250    -1.5380 o          1 6W9      -0.937833
     10 OAB         -9.8670     0.6680     0.3340 o          1 6W9      -0.937833
     11 CAP         -8.3380     0.0990    -1.9500 c3         1 6W9      -0.255600
     12 CAK         -7.0030     0.3050    -1.2280 c3         1 6W9      -0.044400
     13 CAJ         -5.9540     0.7940    -2.2290 c3         1 6W9      -0.083400
     14 CAL         -4.6210     1.0000    -1.5090 c3         1 6W9       0.150800
     15 NAX         -3.6130     1.4690    -2.4690 n3         1 6W9      -0.737600
     16 CAN         -3.9480     2.8080    -2.9720 c3         1 6W9       0.188800
     17 CAQ         -3.1350     3.0970    -4.2350 c3         1 6W9      -0.245600
     18 PBA         -3.4960     4.7860    -4.8170 p5         1 6W9       1.059700
     19 OAF         -2.5450     5.1370    -6.0680 o          1 6W9      -0.924833
     20 OAG         -5.0380     4.8780    -5.2730 o          1 6W9      -0.924833
     21 OAC         -3.2460     5.7490    -3.7220 o          1 6W9      -0.924833
     22 CAM         -2.2700     1.4520    -1.8730 c3         1 6W9       0.147800
     23 N9          -0.3780     0.0060    -1.3140 na         1 6W9      -0.134900
     24 C2          -0.0270     0.0010     2.3040 cd         1 6W9       0.466800
     25 O6           3.2900    -0.0000     1.3000 o          1 6W9      -0.670500
     26 N7           1.8010     0.0000    -1.2910 nd         1 6W9      -0.674000
     27 H1           0.7850     0.0010    -3.1510 h5         1 6W9       0.081100
     28 H2           1.7790     0.0020     3.2690 hn         1 6W9       0.316500
     29 H5          -8.2150    -0.6380    -2.7340 hc         1 6W9       0.021700
     30 H6          -8.6620     1.0380    -2.3830 hc         1 6W9       0.021700
     31 H7          -7.1260     1.0420    -0.4440 hc         1 6W9       0.033200
     32 H8          -6.6790    -0.6330    -0.7940 hc         1 6W9       0.033200
     33 H9          -5.8310     0.0560    -3.0130 hc         1 6W9       0.044700
     34 H10         -6.2790     1.7320    -2.6630 hc         1 6W9       0.044700
     35 H11         -4.2960     0.0620    -1.0740 h1         1 6W9       0.007700
     36 H12         -4.7440     1.7380    -0.7250 h1         1 6W9       0.007700
     37 H14         -5.0050     2.8520    -3.2050 h1         1 6W9       0.057700
     38 H15         -3.7150     3.5470    -2.2150 h1         1 6W9       0.057700
     39 H16         -2.0790     3.0100    -4.0120 hc         1 6W9       0.014700
     40 H17         -3.4020     2.3850    -5.0070 hc         1 6W9       0.014700
     41 H20         -1.6000     2.0540    -2.4750 h1         1 6W9       0.043700
     42 H21         -2.3150     1.8580    -0.8690 h1         1 6W9       0.043700
     43 H22         -2.3830    -0.5720    -1.1590 h1         1 6W9       0.078700
     44 H23         -1.7760    -0.4160    -2.8130 h1         1 6W9       0.078700
     45 H24         -0.6000     0.0010     3.2230 h5         1 6W9       0.053800
     46 CAO         -1.7540     0.0130    -1.8190 c3         1 6W9       0.018300
@<TRIPOS>BOND
     1    21    18 1   
     2     7     8 1   
     3     9     8 1   
     4     8    11 1   
     5     8    10 1   
     6    18    19 1   
     7    18    17 1   
     8    18    20 1   
     9    17    16 1   
    10    13    12 1   
    11    13    14 1   
    12    11    12 1   
    13    14    15 1   
    14    16    15 1   
    15    15    22 1   
    16    46    22 1   
    17    46    23 1   
    18    23     4 1   
    19    23     1 1   
    20     4    26 2   
    21     1     6 1   
    22     1     2 2   
    23     6    24 2   
    24    26     2 1   
    25     2     3 1   
    26    24     5 1   
    27     3     5 1   
    28     3    25 2   
    29     4    27 1   
    30     5    28 1   
    31    11    29 1   
    32    11    30 1   
    33    12    31 1   
    34    12    32 1   
    35    13    33 1   
    36    13    34 1   
    37    14    35 1   
    38    14    36 1   
    39    16    37 1   
    40    16    38 1   
    41    17    39 1   
    42    17    40 1   
    43    22    41 1   
    44    22    42 1   
    45    46    43 1   
    46    46    44 1   
    47    24    45 1   
@<TRIPOS>SUBSTRUCTURE
     1 6W9         1 TEMP              0 ****  ****    0 ROOT
