@<TRIPOS>MOLECULE
6W9
   46    47     1     0     0
SMALL
bcc


@<TRIPOS>ATOM
      1 C4           0.0000     0.0000     0.0000 cc         1 6W9      -0.167200
      2 C5           1.3980     0.0000     0.0000 cd         1 6W9       0.140800
      3 C6           2.0720     0.0000     1.2470 c          1 6W9       0.545000
      4 C8           0.7570     0.0020    -2.0680 cc         1 6W9       0.225400
      5 N1           1.3280     0.0010     2.3760 ns         1 6W9      -0.023400
      6 N3          -0.6620    -0.0010     1.1650 nc         1 6W9      -0.442100
      7 OAD         -9.0910    -1.6990    -0.0760 o          1 6W9      -0.757167
      8 PAZ         -9.5880    -0.4830    -0.7580 p5         1 6W9       0.452700
      9 OAE        -10.9550    -0.8250    -1.5380 o          1 6W9      -0.757167
     10 OAB         -9.8670     0.6680     0.3340 o          1 6W9      -0.757167
     11 CAP         -8.3380     0.0990    -1.9500 c3         1 6W9      -0.047600
     12 CAK         -7.0030     0.3050    -1.2280 c3         1 6W9       0.013600
     13 CAJ         -5.9540     0.7940    -2.2290 c3         1 6W9      -0.058400
     14 CAL         -4.6210     1.0000    -1.5090 c3         1 6W9       0.143800
     15 NAX         -3.6130     1.4690    -2.4690 n3         1 6W9      -0.564600
     16 CAN         -3.9480     2.8080    -2.9720 c3         1 6W9       0.172800
     17 CAQ         -3.1350     3.0970    -4.2350 c3         1 6W9      -0.052600
     18 PBA         -3.4960     4.7860    -4.8170 p5         1 6W9       0.448700
     19 OAF         -2.5450     5.1370    -6.0680 o          1 6W9      -0.741500
     20 OAG         -5.0380     4.8780    -5.2730 o          1 6W9      -0.741500
     21 OAC         -3.2460     5.7490    -3.7220 o          1 6W9      -0.741500
     22 CAM         -2.2700     1.4520    -1.8730 c3         1 6W9       0.129800
     23 N9          -0.3780     0.0060    -1.3140 na         1 6W9       0.355100
     24 C2          -0.0270     0.0010     2.3040 cd         1 6W9       0.220800
     25 O6           3.2900    -0.0000     1.3000 o          1 6W9      -0.735500
     26 N7           1.8010     0.0000    -1.2910 nd         1 6W9      -0.573000
     27 H1           0.7850     0.0010    -3.1510 h5         1 6W9       0.029100
     28 H2           1.7790     0.0020     3.2690 hn         1 6W9       0.153500
     29 H5          -8.2150    -0.6380    -2.7340 hc         1 6W9      -0.004800
     30 H6          -8.6620     1.0380    -2.3830 hc         1 6W9      -0.004800
     31 H7          -7.1260     1.0420    -0.4440 hc         1 6W9       0.006700
     32 H8          -6.6790    -0.6330    -0.7940 hc         1 6W9       0.006700
     33 H9          -5.8310     0.0560    -3.0130 hc         1 6W9       0.020700
     34 H10         -6.2790     1.7320    -2.6630 hc         1 6W9       0.020700
     35 H11         -4.2960     0.0620    -1.0740 h1         1 6W9      -0.011800
     36 H12         -4.7440     1.7380    -0.7250 h1         1 6W9      -0.011800
     37 H14         -5.0050     2.8520    -3.2050 h1         1 6W9       0.032700
     38 H15         -3.7150     3.5470    -2.2150 h1         1 6W9       0.032700
     39 H16         -2.0790     3.0100    -4.0120 hc         1 6W9      -0.009300
     40 H17         -3.4020     2.3850    -5.0070 hc         1 6W9      -0.009300
     41 H20         -1.6000     2.0540    -2.4750 h1         1 6W9       0.023200
     42 H21         -2.3150     1.8580    -0.8690 h1         1 6W9       0.023200
     43 H22         -2.3830    -0.5720    -1.1590 h1         1 6W9       0.049700
     44 H23         -1.7760    -0.4160    -2.8130 h1         1 6W9       0.049700
     45 H24         -0.6000     0.0010     3.2230 h5         1 6W9      -0.001200
     46 CAO         -1.7540     0.0130    -1.8190 c3         1 6W9      -0.081700
@<TRIPOS>BOND
     1     1     2 2   
     2     1     6 1   
     3     1    23 1   
     4     2     3 1   
     5     2    26 1   
     6     3     5 1   
     7     3    25 2   
     8     4    23 1   
     9     4    26 2   
    10     4    27 1   
    11     5    24 1   
    12     5    28 1   
    13     6    24 2   
    14     7     8 1   
    15     8     9 1   
    16     8    10 1   
    17     8    11 1   
    18    11    12 1   
    19    11    29 1   
    20    11    30 1   
    21    12    13 1   
    22    12    31 1   
    23    12    32 1   
    24    13    14 1   
    25    13    33 1   
    26    13    34 1   
    27    14    15 1   
    28    14    35 1   
    29    14    36 1   
    30    15    16 1   
    31    15    22 1   
    32    16    17 1   
    33    16    37 1   
    34    16    38 1   
    35    17    18 1   
    36    17    39 1   
    37    17    40 1   
    38    18    19 1   
    39    18    20 1   
    40    18    21 1   
    41    22    41 1   
    42    22    42 1   
    43    22    46 1   
    44    23    46 1   
    45    24    45 1   
    46    43    46 1   
    47    44    46 1   
@<TRIPOS>SUBSTRUCTURE
     1 6W9         1 TEMP              0 ****  ****    0 ROOT
