@<TRIPOS>MOLECULE
6WA
   44    45     1     0     0
SMALL
bcc


@<TRIPOS>ATOM
      1 OAD          0.0000     0.0000     0.0000 o          1 6WA      -0.768667
      2 PAY          1.6100     0.0000     0.0000 p5         1 6WA       0.442200
      3 OAE          2.1040     0.0000     1.3950 o          1 6WA      -0.768667
      4 OAB          2.1470    -1.3150    -0.7590 o          1 6WA      -0.768667
      5 CAN          2.2180     1.4880    -0.8600 c3         1 6WA      -0.048100
      6 CAJ          1.8140     2.7340    -0.0690 c3         1 6WA       0.008100
      7 CAL          2.3240     3.9830    -0.7910 c3         1 6WA       0.116800
      8 NAX          1.9370     5.1790    -0.0320 n3         1 6WA      -0.519600
      9 CAM          2.6190     5.2240     1.2680 c3         1 6WA       0.116800
     10 CAK          1.9160     6.2310     2.1800 c3         1 6WA       0.008100
     11 CAO          2.6450     6.2990     3.5230 c3         1 6WA      -0.048100
     12 PAZ          1.8960     7.6000     4.5570 p5         1 6WA       0.442200
     13 OAF          0.4470     7.3360     4.7090 o          1 6WA      -0.768667
     14 OAG          2.5960     7.6040     6.0060 o          1 6WA      -0.768667
     15 OAC          2.1090     9.0330     3.8540 o          1 6WA      -0.768667
     16 CAP          2.1970     6.4020    -0.8050 c3         1 6WA       0.212100
     17 CAT          1.1460     6.5530    -1.8740 cc         1 6WA      -0.051300
     18 CAV         -0.1880     6.9680    -1.6740 cc         1 6WA       0.116400
     19 NAQ         -0.9080     7.3310    -0.5860 nc         1 6WA      -0.346100
     20 CAH         -2.1570     7.6780    -0.6940 cd         1 6WA       0.218800
     21 NAR         -2.8010     7.6940    -1.8900 ns         1 6WA       0.000600
     22 CAU         -2.1550     7.3460    -3.0230 c          1 6WA       0.650100
     23 OAA         -2.7290     7.3580    -4.1000 o          1 6WA      -0.796500
     24 CAW         -0.7990     6.9660    -2.9340 cd         1 6WA      -0.463900
     25 NAS          0.1450     6.5640    -3.8470 na         1 6WA       0.438900
     26 CAI          1.3150     6.3240    -3.1920 cd         1 6WA      -0.333300
     27 H3           3.2980     1.4450    -0.9390 hc         1 6WA      -0.016800
     28 H4           1.7850     1.5340    -1.8520 hc         1 6WA      -0.016800
     29 H5           2.2470     2.6880     0.9230 hc         1 6WA       0.028950
     30 H6           0.7350     2.7780     0.0090 hc         1 6WA       0.028950
     31 H7           3.4040     3.9400    -0.8690 h1         1 6WA      -0.008300
     32 H8           1.8920     4.0290    -1.7830 h1         1 6WA      -0.008300
     33 H10          2.5890     4.2420     1.7250 h1         1 6WA      -0.008300
     34 H11          3.6500     5.5240     1.1250 h1         1 6WA      -0.008300
     35 H12          1.9270     7.2090     1.7140 hc         1 6WA       0.028950
     36 H13          0.8910     5.9190     2.3410 hc         1 6WA       0.028950
     37 H14          2.5620     5.3440     4.0280 hc         1 6WA      -0.016800
     38 H15          3.6900     6.5280     3.3550 hc         1 6WA      -0.016800
     39 H18          3.1750     6.3350    -1.2660 h1         1 6WA       0.014200
     40 H19          2.1670     7.2600    -0.1440 h1         1 6WA       0.014200
     41 H20         -2.7020     7.9630     0.1980 h5         1 6WA       0.014800
     42 H21         -3.7630     7.9680    -1.9310 hn         1 6WA       0.153500
     43 H22         -0.0010     6.4690    -4.8330 hn         1 6WA       0.093700
     44 H23          2.2380     6.0010    -3.6580 h4         1 6WA       0.140000
@<TRIPOS>BOND
     1     1     2 1   
     2     2     3 1   
     3     2     4 1   
     4     2     5 1   
     5     5     6 1   
     6     5    27 1   
     7     5    28 1   
     8     6     7 1   
     9     6    29 1   
    10     6    30 1   
    11     7     8 1   
    12     7    31 1   
    13     7    32 1   
    14     8     9 1   
    15     8    16 1   
    16     9    10 1   
    17     9    33 1   
    18     9    34 1   
    19    10    11 1   
    20    10    35 1   
    21    10    36 1   
    22    11    12 1   
    23    11    37 1   
    24    11    38 1   
    25    12    13 1   
    26    12    14 1   
    27    12    15 1   
    28    16    17 1   
    29    16    39 1   
    30    16    40 1   
    31    17    18 1   
    32    17    26 2   
    33    18    19 1   
    34    18    24 2   
    35    19    20 2   
    36    20    21 1   
    37    20    41 1   
    38    21    22 1   
    39    21    42 1   
    40    22    23 2   
    41    22    24 1   
    42    24    25 1   
    43    25    26 1   
    44    25    43 1   
    45    26    44 1   
@<TRIPOS>SUBSTRUCTURE
     1 6WA         1 TEMP              0 ****  ****    0 ROOT
