@<TRIPOS>MOLECULE
molecule
   40    41     1     0     0
SMALL
bcc


@<TRIPOS>ATOM
      1 C4           0.0000     0.0000     0.0000 cc         1 6WC       0.061800
      2 C5           1.3980     0.0000     0.0000 cd         1 6WC       0.192800
      3 C6           2.0730     0.0000     1.2470 c          1 6WC       0.629000
      4 C8           0.7550     0.0020    -2.0680 cc         1 6WC       0.452400
      5 N1           1.3290     0.0020     2.3750 ns         1 6WC      -0.483400
      6 N3          -0.6620     0.0000     1.1660 nc         1 6WC      -0.558100
      7 OAD         -0.9930     5.0820    -6.5190 o          1 6WC      -0.930333
      8 PAY         -1.7820     4.1430    -5.4760 p5         1 6WC       1.063700
      9 OAE         -3.3570     4.4770    -5.5380 o          1 6WC      -0.930333
     10 OAB         -1.5650     2.7230    -5.8300 o          1 6WC      -0.930333
     11 CAL         -1.1610     4.4510    -3.7910 c3         1 6WC      -0.043300
     12 OAR         -1.8620     3.6180    -2.8650 os         1 6WC      -0.369600
     13 CAJ         -1.4600     2.2470    -2.8980 c3         1 6WC       0.132400
     14 CAW         -2.2710     1.4530    -1.8710 c3         1 6WC      -0.091700
     15 CAK         -3.7450     1.4510    -2.2790 c3         1 6WC       0.132400
     16 OAS         -4.2590     2.7830    -2.2170 os         1 6WC      -0.369600
     17 CAM         -5.6360     2.8940    -2.5800 c3         1 6WC      -0.043300
     18 PAZ         -6.6760     2.2600    -1.2230 p5         1 6WC       1.063700
     19 OAF         -8.2280     2.3840    -1.6320 o          1 6WC      -0.930333
     20 OAG         -6.3150     0.7150    -0.9480 o          1 6WC      -0.930333
     21 OAC         -6.4240     3.0510     0.0020 o          1 6WC      -0.930333
     22 N9          -0.3800     0.0060    -1.3140 na         1 6WC      -0.118900
     23 C2          -0.0260     0.0010     2.3040 cd         1 6WC       0.442800
     24 O6           3.2910     0.0000     1.2990 o          1 6WC      -0.689500
     25 N7           1.8000    -0.0000    -1.2920 nd         1 6WC      -0.689000
     26 H1           0.7840    -0.0010    -3.1510 h5         1 6WC       0.093100
     27 H2           1.7800     0.0030     3.2680 hn         1 6WC       0.306500
     28 H5          -0.1030     4.2260    -3.7490 h1         1 6WC       0.013450
     29 H6          -1.3200     5.4910    -3.5320 h1         1 6WC       0.013450
     30 H7          -0.4050     2.1740    -2.6590 h1         1 6WC       0.032450
     31 H8          -1.6340     1.8430    -3.8870 h1         1 6WC       0.032450
     32 H9          -2.1660     1.9100    -0.8950 hc         1 6WC       0.064700
     33 H10         -4.3060     0.8160    -1.6030 h1         1 6WC       0.032450
     34 H11         -3.8400     1.0740    -3.2900 h1         1 6WC       0.032450
     35 H12         -5.8780     3.9340    -2.7640 h1         1 6WC       0.013450
     36 H13         -5.8210     2.3160    -3.4770 h1         1 6WC       0.013450
     37 H16         -2.3850    -0.5720    -1.1590 h1         1 6WC       0.072700
     38 H17         -1.7770    -0.4160    -2.8130 h1         1 6WC       0.072700
     39 H18         -0.5990     0.0030     3.2240 h5         1 6WC       0.045800
     40 CAN         -1.7550     0.0130    -1.8180 c3         1 6WC       0.028300
@<TRIPOS>BOND
     1    10     8 1   
     2     9     8 1   
     3    21    18 1   
     4     8    11 1   
     5     8     7 1   
     6    11    12 1   
     7    18    17 1   
     8    18    19 1   
     9    18    20 1   
    10    12    13 1   
    11    17    16 1   
    12    16    15 1   
    13    14    13 1   
    14    14    40 1   
    15    14    15 1   
    16    40    22 1   
    17    22     4 1   
    18    22     1 1   
    19     4    25 2   
    20     1     6 1   
    21     1     2 2   
    22     6    23 2   
    23    25     2 1   
    24     2     3 1   
    25    23     5 1   
    26     3     5 1   
    27     3    24 2   
    28     4    26 1   
    29     5    27 1   
    30    11    28 1   
    31    11    29 1   
    32    13    30 1   
    33    13    31 1   
    34    14    32 1   
    35    15    33 1   
    36    15    34 1   
    37    17    35 1   
    38    17    36 1   
    39    40    37 1   
    40    40    38 1   
    41    23    39 1   
@<TRIPOS>SUBSTRUCTURE
     1 6WC         1 TEMP              0 ****  ****    0 ROOT
