@<TRIPOS>MOLECULE
6WC
   40    41     1     0     0
SMALL
bcc


@<TRIPOS>ATOM
      1 C4           0.0000     0.0000     0.0000 cc         1 6WC      -0.175200
      2 C5           1.3980     0.0000     0.0000 cd         1 6WC       0.129800
      3 C6           2.0730     0.0000     1.2470 c          1 6WC       0.548000
      4 C8           0.7550     0.0020    -2.0680 cc         1 6WC       0.240400
      5 N1           1.3290     0.0020     2.3750 ns         1 6WC      -0.027400
      6 N3          -0.6620     0.0000     1.1660 nc         1 6WC      -0.416100
      7 OAD         -0.9930     5.0820    -6.5190 o          1 6WC      -0.753000
      8 PAY         -1.7820     4.1430    -5.4760 p5         1 6WC       0.442200
      9 OAE         -3.3570     4.4770    -5.5380 o          1 6WC      -0.753000
     10 OAB         -1.5650     2.7230    -5.8300 o          1 6WC      -0.753000
     11 CAL         -1.1610     4.4510    -3.7910 c3         1 6WC       0.195200
     12 OAR         -1.8620     3.6180    -2.8650 os         1 6WC      -0.347100
     13 CAJ         -1.4600     2.2470    -2.8980 c3         1 6WC       0.158900
     14 CAW         -2.2710     1.4530    -1.8710 c3         1 6WC      -0.081700
     15 CAK         -3.7450     1.4510    -2.2790 c3         1 6WC       0.158900
     16 OAS         -4.2590     2.7830    -2.2170 os         1 6WC      -0.347100
     17 CAM         -5.6360     2.8940    -2.5800 c3         1 6WC       0.195200
     18 PAZ         -6.6760     2.2600    -1.2230 p5         1 6WC       0.442200
     19 OAF         -8.2280     2.3840    -1.6320 o          1 6WC      -0.753000
     20 OAG         -6.3150     0.7150    -0.9480 o          1 6WC      -0.753000
     21 OAC         -6.4240     3.0510     0.0020 o          1 6WC      -0.753000
     22 N9          -0.3800     0.0060    -1.3140 na         1 6WC       0.367100
     23 C2          -0.0260     0.0010     2.3040 cd         1 6WC       0.174800
     24 O6           3.2910     0.0000     1.2990 o          1 6WC      -0.760500
     25 N7           1.8000    -0.0000    -1.2920 nd         1 6WC      -0.589000
     26 H1           0.7840    -0.0010    -3.1510 h5         1 6WC       0.041100
     27 H2           1.7800     0.0030     3.2680 hn         1 6WC       0.142500
     28 H5          -0.1030     4.2260    -3.7490 h1         1 6WC      -0.019050
     29 H6          -1.3200     5.4910    -3.5320 h1         1 6WC      -0.019050
     30 H7          -0.4050     2.1740    -2.6590 h1         1 6WC       0.014200
     31 H8          -1.6340     1.8430    -3.8870 h1         1 6WC       0.014200
     32 H9          -2.1660     1.9100    -0.8950 hc         1 6WC       0.035700
     33 H10         -4.3060     0.8160    -1.6030 h1         1 6WC       0.014200
     34 H11         -3.8400     1.0740    -3.2900 h1         1 6WC       0.014200
     35 H12         -5.8780     3.9340    -2.7640 h1         1 6WC      -0.019050
     36 H13         -5.8210     2.3160    -3.4770 h1         1 6WC      -0.019050
     37 H16         -2.3850    -0.5720    -1.1590 h1         1 6WC       0.040700
     38 H17         -1.7770    -0.4160    -2.8130 h1         1 6WC       0.040700
     39 H18         -0.5990     0.0030     3.2240 h5         1 6WC      -0.008200
     40 CAN         -1.7550     0.0130    -1.8180 c3         1 6WC      -0.061700
@<TRIPOS>BOND
     1     1     2 2   
     2     1     6 1   
     3     1    22 1   
     4     2     3 1   
     5     2    25 1   
     6     3     5 1   
     7     3    24 2   
     8     4    22 1   
     9     4    25 2   
    10     4    26 1   
    11     5    23 1   
    12     5    27 1   
    13     6    23 2   
    14     7     8 1   
    15     8     9 1   
    16     8    10 1   
    17     8    11 1   
    18    11    12 1   
    19    11    28 1   
    20    11    29 1   
    21    12    13 1   
    22    13    14 1   
    23    13    30 1   
    24    13    31 1   
    25    14    15 1   
    26    14    32 1   
    27    14    40 1   
    28    15    16 1   
    29    15    33 1   
    30    15    34 1   
    31    16    17 1   
    32    17    18 1   
    33    17    35 1   
    34    17    36 1   
    35    18    19 1   
    36    18    20 1   
    37    18    21 1   
    38    22    40 1   
    39    23    39 1   
    40    37    40 1   
    41    38    40 1   
@<TRIPOS>SUBSTRUCTURE
     1 6WC         1 TEMP              0 ****  ****    0 ROOT
