@<TRIPOS>MOLECULE
molecule
   37    39     1     0     0
SMALL
bcc


@<TRIPOS>ATOM
      1 C18          0.0000     0.0000     0.0000 ca         1 6WD       0.143900
      2 C17          1.3850     0.0000     0.0000 ca         1 6WD      -0.137000
      3 C16          2.0760     0.0000     1.1970 ca         1 6WD      -0.102000
      4 C15          1.3860    -0.0010     2.3940 ca         1 6WD      -0.130300
      5 C19         -0.6920     0.0050     1.1990 ca         1 6WD      -0.164000
      6 C20          0.0010    -0.0010     2.3960 ca         1 6WD       0.145900
      7 C12          0.4890     5.8750     5.5200 ca         1 6WD       0.666900
      8 C1           1.7620    -1.2550     4.4880 c3         1 6WD      -0.072100
      9 C2           2.1410    -0.0010     3.6990 c3         1 6WD       0.216500
     10 C3           1.7350     1.2290     4.5030 c3         1 6WD      -0.112400
     11 C4           2.1880     2.4890     3.7520 c3         1 6WD       0.066700
     12 S5           3.9950     2.5810     3.8610 ss         1 6WD      -0.185300
     13 C6           4.4020     0.9250     3.4320 c2         1 6WD       0.486100
     14 N7           3.5600    -0.0370     3.4170 n2         1 6WD      -0.609900
     15 N8           5.7060     0.6480     3.0910 nz         1 6WD      -0.814600
     16 C9           1.5760     3.7100     4.3890 ca         1 6WD      -0.328900
     17 C10          0.2360     4.1740     4.0140 ca         1 6WD       0.457200
     18 N11         -0.0240     5.4110     4.3980 nb         1 6WD      -0.698000
     19 N13          1.2830     5.0870     6.2790 nb         1 6WD      -0.698000
     20 C14          2.4110     4.5340     5.0680 ca         1 6WD       0.457200
     21 F21         -0.7350     1.0390     2.8870 f          1 6WD      -0.139900
     22 F22         -0.6820    -0.0470    -1.1810 f          1 6WD      -0.113900
     23 H1           1.9260    -0.0230    -0.9380 ha         1 6WD       0.165000
     24 H2           3.1590    -0.0280     1.1970 ha         1 6WD       0.129000
     25 H3          -1.7750    -0.0290     1.1990 ha         1 6WD       0.190000
     26 H5           1.8090    -2.1200     3.8370 hc         1 6WD       0.066367
     27 H6           2.4540    -1.3870     5.3120 hc         1 6WD       0.066367
     28 H7           0.7560    -1.1480     4.8750 hc         1 6WD       0.066367
     29 H8           0.6540     1.2640     4.5650 hc         1 6WD       0.101200
     30 H9           2.1450     1.1430     5.5020 hc         1 6WD       0.101200
     31 H10          1.8890     2.4220     2.7130 h1         1 6WD       0.097700
     32 H11          5.7880    -0.3170     2.8410 hn         1 6WD       0.496467
     33 H12          5.9760     1.2180     2.3140 hn         1 6WD       0.496467
     34 H13         -0.3270     3.6440     3.2550 h4         1 6WD       0.062100
     35 H14          3.4670     4.5940     5.3030 h4         1 6WD       0.062100
     36 H83          6.1170     0.0640     3.7920 hn         1 6WD       0.496467
     37 H4           0.2730     6.8920     5.8250 h5         1 6WD       0.070100
@<TRIPOS>BOND
     1     7    19 ar  
     2     7    18 ar  
     3    19    20 ar  
     4    18    17 ar  
     5    20    16 ar  
     6    17    16 ar  
     7    16    11 1   
     8    21     6 1   
     9    10    11 1   
    10    10     9 1   
    11    11    12 1   
    12     6     5 ar  
    13     6     4 ar  
    14     8     9 1   
    15     5     1 ar  
    16     9     4 1   
    17     9    14 1   
    18     4     3 ar  
    19    12    13 1   
    20    14    13 2   
    21     1    22 1   
    22     1     2 ar  
    23    13    15 1   
    24     3     2 ar  
    25     2    23 1   
    26     3    24 1   
    27     5    25 1   
    28     7    37 1   
    29     8    26 1   
    30     8    27 1   
    31     8    28 1   
    32    10    29 1   
    33    10    30 1   
    34    11    31 1   
    35    15    32 1   
    36    15    33 1   
    37    17    34 1   
    38    20    35 1   
    39    36    15 1   
@<TRIPOS>SUBSTRUCTURE
     1 6WD         1 TEMP              0 ****  ****    0 ROOT
