@<TRIPOS>MOLECULE
6WD
   37    39     1     0     0
SMALL
bcc


@<TRIPOS>ATOM
      1 C18          0.0000     0.0000     0.0000 ca         1 6WD       0.129900
      2 C17          1.3850     0.0000     0.0000 ca         1 6WD      -0.088000
      3 C16          2.0760     0.0000     1.1970 ca         1 6WD      -0.086000
      4 C15          1.3860    -0.0010     2.3940 ca         1 6WD      -0.129300
      5 C19         -0.6920     0.0050     1.1990 ca         1 6WD      -0.128000
      6 C20          0.0010    -0.0010     2.3960 ca         1 6WD       0.127900
      7 C12          0.4890     5.8750     5.5200 ca         1 6WD       0.722900
      8 C1           1.7620    -1.2550     4.4880 c3         1 6WD       0.016900
      9 C2           2.1410    -0.0010     3.6990 c3         1 6WD       0.168500
     10 C3           1.7350     1.2290     4.5030 c3         1 6WD      -0.073400
     11 C4           2.1880     2.4890     3.7520 c3         1 6WD       0.145700
     12 S5           3.9950     2.5810     3.8610 ss         1 6WD      -0.251300
     13 C6           4.4020     0.9250     3.4320 c2         1 6WD       0.201100
     14 N7           3.5600    -0.0370     3.4170 n2         1 6WD      -0.390900
     15 N8           5.7060     0.6480     3.0910 nz         1 6WD       0.058400
     16 C9           1.5760     3.7100     4.3890 ca         1 6WD      -0.351900
     17 C10          0.2360     4.1740     4.0140 ca         1 6WD       0.492700
     18 N11         -0.0240     5.4110     4.3980 nb         1 6WD      -0.679500
     19 N13          1.2830     5.0870     6.2790 nb         1 6WD      -0.679500
     20 C14          2.4110     4.5340     5.0680 ca         1 6WD       0.492700
     21 F21         -0.7350     1.0390     2.8870 f          1 6WD      -0.131900
     22 F22         -0.6820    -0.0470    -1.1810 f          1 6WD      -0.108900
     23 H1           1.9260    -0.0230    -0.9380 ha         1 6WD       0.134000
     24 H2           3.1590    -0.0280     1.1970 ha         1 6WD       0.098000
     25 H3          -1.7750    -0.0290     1.1990 ha         1 6WD       0.162000
     26 H5           1.8090    -2.1200     3.8370 hc         1 6WD       0.030367
     27 H6           2.4540    -1.3870     5.3120 hc         1 6WD       0.030367
     28 H7           0.7560    -1.1480     4.8750 hc         1 6WD       0.030367
     29 H8           0.6540     1.2640     4.5650 hc         1 6WD       0.076200
     30 H9           2.1450     1.1430     5.5020 hc         1 6WD       0.076200
     31 H10          1.8890     2.4220     2.7130 h1         1 6WD       0.074700
     32 H11          5.7880    -0.3170     2.8410 hn         1 6WD       0.262467
     33 H12          5.9760     1.2180     2.3140 hn         1 6WD       0.262467
     34 H13         -0.3270     3.6440     3.2550 h4         1 6WD       0.016600
     35 H14          3.4670     4.5940     5.3030 h4         1 6WD       0.016600
     36 H83          6.1170     0.0640     3.7920 hn         1 6WD       0.262467
     37 H4           0.2730     6.8920     5.8250 h5         1 6WD       0.006100
@<TRIPOS>BOND
     1     1     2 ar  
     2     1     5 ar  
     3     1    22 1   
     4     2     3 ar  
     5     2    23 1   
     6     3     4 ar  
     7     3    24 1   
     8     4     6 ar  
     9     4     9 1   
    10     5     6 ar  
    11     5    25 1   
    12     6    21 1   
    13     7    18 ar  
    14     7    19 ar  
    15     7    37 1   
    16     8     9 1   
    17     8    26 1   
    18     8    27 1   
    19     8    28 1   
    20     9    10 1   
    21     9    14 1   
    22    10    11 1   
    23    10    29 1   
    24    10    30 1   
    25    11    12 1   
    26    11    16 1   
    27    11    31 1   
    28    12    13 1   
    29    13    14 2   
    30    13    15 1   
    31    15    32 1   
    32    15    33 1   
    33    15    36 1   
    34    16    17 ar  
    35    16    20 ar  
    36    17    18 ar  
    37    17    34 1   
    38    19    20 ar  
    39    20    35 1   
@<TRIPOS>SUBSTRUCTURE
     1 6WD         1 TEMP              0 ****  ****    0 ROOT
