@<TRIPOS>MOLECULE
molecule
   29    30     1     0     0
SMALL
bcc


@<TRIPOS>ATOM
      1 C4           0.0000     0.0000     0.0000 ca         1 6WG      -0.111300
      2 C7          -0.7540     0.0080    -1.3060 c3         1 6WG       0.165000
      3 C6          -0.0000    -0.0070     2.3940 ca         1 6WG      -0.127000
      4 C9          -1.1230     1.2550    -3.4380 c3         1 6WG      -0.082400
      5 C8          -0.4700     1.3140    -2.0550 c3         1 6WG      -0.090400
      6 C1           1.3830    -0.0130     2.3950 ca         1 6WG      -0.121000
      7 C2           2.0730     0.0000     1.1980 ca         1 6WG      -0.127000
      8 C3           1.3830     0.0000     0.0000 ca         1 6WG      -0.119500
      9 C5          -0.6920     0.0000     1.1970 ca         1 6WG      -0.119500
     10 C10         -0.5240     0.0980    -4.2400 c3         1 6WG      -0.100400
     11 C11         -0.8080    -1.2220    -3.5150 c3         1 6WG       0.104000
     12 N1          -0.3100    -1.1200    -2.1360 n          1 6WG      -0.500800
     13 C12          0.5380    -2.0440    -1.6420 c          1 6WG       0.653900
     14 O1           0.9740    -2.9150    -2.3660 o          1 6WG      -0.621100
     15 H6          -1.8170    -0.0770    -1.1180 h1         1 6WG       0.056700
     16 H5          -0.5420    -0.0120     3.3320 ha         1 6WG       0.134000
     17 H10         -2.1900     1.1000    -3.3250 hc         1 6WG       0.043700
     18 H9          -0.9420     2.1870    -3.9610 hc         1 6WG       0.043700
     19 H8           0.6010     1.4390    -2.1680 hc         1 6WG       0.053200
     20 H7          -0.8800     2.1460    -1.4970 hc         1 6WG       0.053200
     21 H1           1.9240    -0.0160     3.3330 ha         1 6WG       0.133000
     22 H2           3.1560    -0.0030     1.1980 ha         1 6WG       0.134000
     23 H3           1.9250     0.0110    -0.9380 ha         1 6WG       0.137000
     24 H4          -1.7750     0.0060     1.1970 ha         1 6WG       0.137000
     25 H12         -0.9730     0.0720    -5.2250 hc         1 6WG       0.051200
     26 H11          0.5470     0.2380    -4.3280 hc         1 6WG       0.051200
     27 H14         -0.3010    -2.0310    -4.0250 h1         1 6WG       0.061700
     28 H13         -1.8760    -1.4050    -3.5020 h1         1 6WG       0.061700
     29 H15          0.7810    -2.0460    -0.5870 h5         1 6WG       0.042200
@<TRIPOS>BOND
     1     7     6 ar  
     2     7     8 ar  
     3     6     3 ar  
     4     8     1 ar  
     5     3     9 ar  
     6     1     9 ar  
     7     1     2 1   
     8    14    13 2   
     9    13    12 1   
    10    12     2 1   
    11    12    11 1   
    12     2     5 1   
    13    11    10 1   
    14     5     4 1   
    15    10     4 1   
    16     2    15 1   
    17     3    16 1   
    18     4    17 1   
    19     4    18 1   
    20     5    19 1   
    21     5    20 1   
    22     6    21 1   
    23     7    22 1   
    24     8    23 1   
    25     9    24 1   
    26    10    25 1   
    27    10    26 1   
    28    11    27 1   
    29    11    28 1   
    30    13    29 1   
@<TRIPOS>SUBSTRUCTURE
     1 6WG         1 TEMP              0 ****  ****    0 ROOT
