@<TRIPOS>MOLECULE
6WG
   29    30     1     0     0
SMALL
bcc


@<TRIPOS>ATOM
      1 C4           0.0000     0.0000     0.0000 ca         1 6WG      -0.120300
      2 C7          -0.7540     0.0080    -1.3060 c3         1 6WG       0.101000
      3 C6          -0.0000    -0.0070     2.3940 ca         1 6WG      -0.097000
      4 C9          -1.1230     1.2550    -3.4380 c3         1 6WG      -0.026400
      5 C8          -0.4700     1.3140    -2.0550 c3         1 6WG      -0.042400
      6 C1           1.3830    -0.0130     2.3950 ca         1 6WG      -0.092000
      7 C2           2.0730     0.0000     1.1980 ca         1 6WG      -0.097000
      8 C3           1.3830     0.0000     0.0000 ca         1 6WG      -0.092500
      9 C5          -0.6920     0.0000     1.1970 ca         1 6WG      -0.092500
     10 C10         -0.5240     0.0980    -4.2400 c3         1 6WG      -0.043400
     11 C11         -0.8080    -1.2220    -3.5150 c3         1 6WG       0.051000
     12 N1          -0.3100    -1.1200    -2.1360 n          1 6WG      -0.181800
     13 C12          0.5380    -2.0440    -1.6420 c          1 6WG       0.607900
     14 O1           0.9740    -2.9150    -2.3660 o          1 6WG      -0.657100
     15 H6          -1.8170    -0.0770    -1.1180 h1         1 6WG       0.030700
     16 H5          -0.5420    -0.0120     3.3320 ha         1 6WG       0.106000
     17 H10         -2.1900     1.1000    -3.3250 hc         1 6WG       0.016700
     18 H9          -0.9420     2.1870    -3.9610 hc         1 6WG       0.016700
     19 H8           0.6010     1.4390    -2.1680 hc         1 6WG       0.026700
     20 H7          -0.8800     2.1460    -1.4970 hc         1 6WG       0.026700
     21 H1           1.9240    -0.0160     3.3330 ha         1 6WG       0.105000
     22 H2           3.1560    -0.0030     1.1980 ha         1 6WG       0.106000
     23 H3           1.9250     0.0110    -0.9380 ha         1 6WG       0.112500
     24 H4          -1.7750     0.0060     1.1970 ha         1 6WG       0.112500
     25 H12         -0.9730     0.0720    -5.2250 hc         1 6WG       0.022200
     26 H11          0.5470     0.2380    -4.3280 hc         1 6WG       0.022200
     27 H14         -0.3010    -2.0310    -4.0250 h1         1 6WG       0.034700
     28 H13         -1.8760    -1.4050    -3.5020 h1         1 6WG       0.034700
     29 H15          0.7810    -2.0460    -0.5870 h5         1 6WG       0.008200
@<TRIPOS>BOND
     1     1     2 1   
     2     1     8 ar  
     3     1     9 ar  
     4     2     5 1   
     5     2    12 1   
     6     2    15 1   
     7     3     6 ar  
     8     3     9 ar  
     9     3    16 1   
    10     4     5 1   
    11     4    10 1   
    12     4    17 1   
    13     4    18 1   
    14     5    19 1   
    15     5    20 1   
    16     6     7 ar  
    17     6    21 1   
    18     7     8 ar  
    19     7    22 1   
    20     8    23 1   
    21     9    24 1   
    22    10    11 1   
    23    10    25 1   
    24    10    26 1   
    25    11    12 1   
    26    11    27 1   
    27    11    28 1   
    28    12    13 1   
    29    13    14 2   
    30    13    29 1   
@<TRIPOS>SUBSTRUCTURE
     1 6WG         1 TEMP              0 ****  ****    0 ROOT
