@<TRIPOS>MOLECULE
6WH
   79    84     1     0     0
SMALL
bcc


@<TRIPOS>ATOM
      1 C43          0.0000     0.0000     0.0000 c3         1 6WH      -0.044400
      2 C46          3.5480    -0.0010     1.4420 ca         1 6WH      -0.080300
      3 C47          4.2390     1.0380     0.8500 ca         1 6WH      -0.109000
      4 C49          5.6210     1.0380     0.8490 ca         1 6WH      -0.105000
      5 C51          6.3120    -0.0020     1.4430 ca         1 6WH      -0.099000
      6 C53          5.6210    -1.0410     2.0360 ca         1 6WH      -0.105000
      7 C55          4.2380    -1.0370     2.0420 ca         1 6WH      -0.109000
      8 C57          1.0650    -2.2940    -4.6800 c          1 6WH       0.618700
      9 C59          0.8680    -2.0920    -6.1320 ca         1 6WH      -0.038600
     10 C60         -0.3070    -2.5230    -6.7460 ca         1 6WH      -0.136000
     11 C12          8.6910    -0.3330    -7.1770 cx         1 6WH      -0.077900
     12 C15          4.6040    -3.0350    -4.0350 c3         1 6WH      -0.063000
     13 C17          3.5600    -2.3510    -4.9530 c3         1 6WH       0.010000
     14 C21          2.6490    -2.4260    -2.7420 c3         1 6WH      -0.041300
     15 C23          4.1870    -2.5010    -2.6390 c3         1 6WH      -0.036400
     16 C26          2.1480    -1.1960    -2.0310 c          1 6WH       0.565100
     17 C30          1.5310     0.0000     0.0000 c3         1 6WH       0.014700
     18 N1           5.9630    -2.6100    -4.3760 na         1 6WH       0.588400
     19 N2           7.0370    -3.2970    -4.1940 nc         1 6WH      -0.362800
     20 N3           8.0610    -2.6350    -4.6020 nd         1 6WH      -0.289000
     21 C4           7.6530    -1.4540    -5.0780 cd         1 6WH       0.325600
     22 C5           6.3060    -1.4290    -4.9420 cc         1 6WH      -0.472600
     23 C7           8.5200    -0.3660    -5.6570 cx         1 6WH      -0.109000
     24 C9           7.8310     0.7240    -6.4800 cx         1 6WH      -0.077900
     25 N20          2.3110    -2.3520    -4.1710 n          1 6WH      -0.109800
     26 O27          1.8590    -0.2040    -2.6680 o          1 6WH      -0.657100
     27 N28          2.0180    -1.1970    -0.6900 ns         1 6WH      -0.151900
     28 C32          2.0400     0.0000     1.4430 c3         1 6WH      -0.002400
     29 C34          1.5320     1.2490     2.1640 c3         1 6WH      -0.017400
     30 C37          0.0010     1.2490     2.1640 c3         1 6WH      -0.028400
     31 C40         -0.5090     1.2490     0.7210 c3         1 6WH      -0.019400
     32 O58          0.1010    -2.4070    -3.9470 o          1 6WH      -0.612100
     33 C62         -0.4840    -2.3310    -8.1070 ca         1 6WH       0.174100
     34 C63          0.5070    -1.7120    -8.8550 ca         1 6WH      -0.242300
     35 C64          1.6730    -1.2830    -8.2480 ca         1 6WH      -0.030000
     36 C66          1.8570    -1.4640    -6.8930 ca         1 6WH      -0.141000
     37 C68          0.3120    -1.5050   -10.3350 c3         1 6WH       0.048100
     38 N71         -0.5420    -0.3300   -10.5570 nz         1 6WH       0.069400
     39 O74         -1.6280    -2.7500    -8.7080 os         1 6WH      -0.347900
     40 C75         -2.6050    -3.3800    -7.8780 c3         1 6WH       0.250700
     41 H1          -0.3600     0.0030    -1.0220 hc         1 6WH       0.026200
     42 H2          -0.3600    -0.8830     0.5130 hc         1 6WH       0.026200
     43 H3           3.6970     1.8680     0.4120 ha         1 6WH       0.114500
     44 H4           6.1630     1.8340     0.3510 ha         1 6WH       0.107000
     45 H5           7.3950    -0.0030     1.4420 ha         1 6WH       0.107000
     46 H6           6.1620    -1.8410     2.5270 ha         1 6WH       0.107000
     47 H7           3.9530    -1.8670     2.6770 ha         1 6WH       0.114500
     48 H8          -1.0800    -3.0060    -6.1610 ha         1 6WH       0.160000
     49 H9           9.6560     0.0090    -7.5320 hc         1 6WH       0.045700
     50 H10          8.1460    -1.0910    -7.7260 hc         1 6WH       0.045700
     51 H11          4.5060    -4.1130    -4.0780 h1         1 6WH       0.076700
     52 H12          3.4320    -2.9210    -5.8660 h1         1 6WH       0.040700
     53 H13          3.8640    -1.3350    -5.1750 h1         1 6WH       0.040700
     54 H14          2.2090    -3.3150    -2.3070 h1         1 6WH       0.053700
     55 H15          4.4850    -3.1930    -1.8610 hc         1 6WH       0.052200
     56 H16          4.6060    -1.5170    -2.4670 hc         1 6WH       0.052200
     57 H17          1.8900     0.8870    -0.5080 h1         1 6WH       0.064700
     58 H18          5.6380    -0.6240    -5.2230 h4         1 6WH       0.165000
     59 H19          9.3840    -0.0320    -5.0960 hc         1 6WH       0.074700
     60 H20          8.2710     1.7110    -6.4090 hc         1 6WH       0.045700
     61 H21          6.7610     0.6110    -6.6030 hc         1 6WH       0.045700
     62 H22          2.2150    -2.0290    -0.1700 hn         1 6WH       0.177500
     63 H23          1.6740    -0.8830     1.9530 hc         1 6WH       0.036700
     64 H24          1.8910     2.1330     1.6500 hc         1 6WH       0.024200
     65 H25          1.8910     1.2470     3.1850 hc         1 6WH       0.024200
     66 H26         -0.3590     0.3630     2.6720 hc         1 6WH       0.018700
     67 H27         -0.3590     2.1350     2.6720 hc         1 6WH       0.018700
     68 H28         -1.5920     1.2480     0.7220 hc         1 6WH       0.018200
     69 H29         -0.1440     2.1330     0.2110 hc         1 6WH       0.018200
     70 H30          2.4420    -0.7990    -8.8370 ha         1 6WH       0.112000
     71 H31          2.7710    -1.1270    -6.4200 ha         1 6WH       0.149000
     72 H32         -0.1610    -2.3800   -10.7630 hx         1 6WH       0.083200
     73 H33          1.2740    -1.3470   -10.8080 hx         1 6WH       0.083200
     74 H34         -0.2160     0.1720   -11.3600 hn         1 6WH       0.224800
     75 H35         -0.5050     0.2660    -9.7540 hn         1 6WH       0.224800
     76 H37         -3.4580    -3.6690    -8.4800 h1         1 6WH       0.015367
     77 H38         -2.1740    -4.2610    -7.4180 h1         1 6WH       0.015367
     78 H39         -2.9250    -2.6890    -7.1080 h1         1 6WH       0.015367
     79 H713        -1.4880    -0.6250   -10.6950 hn         1 6WH       0.224800
@<TRIPOS>BOND
     1     1    17 1   
     2     1    31 1   
     3     1    41 1   
     4     1    42 1   
     5     2     3 ar  
     6     2     7 ar  
     7     2    28 1   
     8     3     4 ar  
     9     3    43 1   
    10     4     5 ar  
    11     4    44 1   
    12     5     6 ar  
    13     5    45 1   
    14     6     7 ar  
    15     6    46 1   
    16     7    47 1   
    17     8     9 1   
    18     8    25 1   
    19     8    32 2   
    20     9    10 ar  
    21     9    36 ar  
    22    10    33 ar  
    23    10    48 1   
    24    11    23 1   
    25    11    24 1   
    26    11    49 1   
    27    11    50 1   
    28    12    13 1   
    29    12    15 1   
    30    12    18 1   
    31    12    51 1   
    32    13    25 1   
    33    13    52 1   
    34    13    53 1   
    35    14    15 1   
    36    14    16 1   
    37    14    25 1   
    38    14    54 1   
    39    15    55 1   
    40    15    56 1   
    41    16    26 2   
    42    16    27 1   
    43    17    27 1   
    44    17    28 1   
    45    17    57 1   
    46    18    19 1   
    47    18    22 1   
    48    19    20 2   
    49    20    21 1   
    50    21    22 2   
    51    21    23 1   
    52    22    58 1   
    53    23    24 1   
    54    23    59 1   
    55    24    60 1   
    56    24    61 1   
    57    27    62 1   
    58    28    29 1   
    59    28    63 1   
    60    29    30 1   
    61    29    64 1   
    62    29    65 1   
    63    30    31 1   
    64    30    66 1   
    65    30    67 1   
    66    31    68 1   
    67    31    69 1   
    68    33    34 ar  
    69    33    39 1   
    70    34    35 ar  
    71    34    37 1   
    72    35    36 ar  
    73    35    70 1   
    74    36    71 1   
    75    37    38 1   
    76    37    72 1   
    77    37    73 1   
    78    38    74 1   
    79    38    75 1   
    80    38    79 1   
    81    39    40 1   
    82    40    76 1   
    83    40    77 1   
    84    40    78 1   
@<TRIPOS>SUBSTRUCTURE
     1 6WH         1 TEMP              0 ****  ****    0 ROOT
