@<TRIPOS>MOLECULE
molecule
   79    84     1     0     0
SMALL
bcc


@<TRIPOS>ATOM
      1 C43          0.0000     0.0000     0.0000 c3         1 6WH      -0.096400
      2 C46          3.5480    -0.0010     1.4420 ca         1 6WH      -0.069300
      3 C47          4.2390     1.0380     0.8500 ca         1 6WH      -0.132500
      4 C49          5.6210     1.0380     0.8490 ca         1 6WH      -0.132000
      5 C51          6.3120    -0.0020     1.4430 ca         1 6WH      -0.128000
      6 C53          5.6210    -1.0410     2.0360 ca         1 6WH      -0.132000
      7 C55          4.2380    -1.0370     2.0420 ca         1 6WH      -0.132500
      8 C57          1.0650    -2.2940    -4.6800 c          1 6WH       0.695700
      9 C59          0.8680    -2.0920    -6.1320 ca         1 6WH      -0.042600
     10 C60         -0.3070    -2.5230    -6.7460 ca         1 6WH      -0.158000
     11 C12          8.6910    -0.3330    -7.1770 cx         1 6WH      -0.131900
     12 C15          4.6040    -3.0350    -4.0350 c3         1 6WH       0.055000
     13 C17          3.5600    -2.3510    -4.9530 c3         1 6WH       0.075000
     14 C21          2.6490    -2.4260    -2.7420 c3         1 6WH       0.037700
     15 C23          4.1870    -2.5010    -2.6390 c3         1 6WH      -0.097400
     16 C26          2.1480    -1.1960    -2.0310 c          1 6WH       0.655100
     17 C30          1.5310     0.0000     0.0000 c3         1 6WH       0.124700
     18 N1           5.9630    -2.6100    -4.3760 na         1 6WH       0.121400
     19 N2           7.0370    -3.2970    -4.1940 nc         1 6WH      -0.188800
     20 N3           8.0610    -2.6350    -4.6020 nd         1 6WH      -0.341000
     21 C4           7.6530    -1.4540    -5.0780 cd         1 6WH       0.329600
     22 C5           6.3060    -1.4290    -4.9420 cc         1 6WH      -0.305600
     23 C7           8.5200    -0.3660    -5.6570 cx         1 6WH      -0.145000
     24 C9           7.8310     0.7240    -6.4800 cx         1 6WH      -0.131900
     25 N20          2.3110    -2.3520    -4.1710 n          1 6WH      -0.467800
     26 O27          1.8590    -0.2040    -2.6680 o          1 6WH      -0.610100
     27 N28          2.0180    -1.1970    -0.6900 ns         1 6WH      -0.560900
     28 C32          2.0400     0.0000     1.4430 c3         1 6WH      -0.035400
     29 C34          1.5320     1.2490     2.1640 c3         1 6WH      -0.068400
     30 C37          0.0010     1.2490     2.1640 c3         1 6WH      -0.085400
     31 C40         -0.5090     1.2490     0.7210 c3         1 6WH      -0.079400
     32 O58          0.1010    -2.4070    -3.9470 o          1 6WH      -0.566100
     33 C62         -0.4840    -2.3310    -8.1070 ca         1 6WH       0.161100
     34 C63          0.5070    -1.7120    -8.8550 ca         1 6WH      -0.219300
     35 C64          1.6730    -1.2830    -8.2480 ca         1 6WH      -0.072000
     36 C66          1.8570    -1.4640    -6.8930 ca         1 6WH      -0.145000
     37 C68          0.3120    -1.5050   -10.3350 c3         1 6WH       0.172100
     38 N71         -0.5420    -0.3300   -10.5570 nz         1 6WH      -0.810600
     39 O74         -1.6280    -2.7500    -8.7080 os         1 6WH      -0.361900
     40 C75         -2.6050    -3.3800    -7.8780 c3         1 6WH       0.122700
     41 H1          -0.3600     0.0030    -1.0220 hc         1 6WH       0.052700
     42 H2          -0.3600    -0.8830     0.5130 hc         1 6WH       0.052700
     43 H3           3.6970     1.8680     0.4120 ha         1 6WH       0.136000
     44 H4           6.1630     1.8340     0.3510 ha         1 6WH       0.133000
     45 H5           7.3950    -0.0030     1.4420 ha         1 6WH       0.134000
     46 H6           6.1620    -1.8410     2.5270 ha         1 6WH       0.133000
     47 H7           3.9530    -1.8670     2.6770 ha         1 6WH       0.136000
     48 H8          -1.0800    -3.0060    -6.1610 ha         1 6WH       0.183000
     49 H9           9.6560     0.0090    -7.5320 hc         1 6WH       0.076200
     50 H10          8.1460    -1.0910    -7.7260 hc         1 6WH       0.076200
     51 H11          4.5060    -4.1130    -4.0780 h1         1 6WH       0.109700
     52 H12          3.4320    -2.9210    -5.8660 h1         1 6WH       0.063200
     53 H13          3.8640    -1.3350    -5.1750 h1         1 6WH       0.063200
     54 H14          2.2090    -3.3150    -2.3070 h1         1 6WH       0.083700
     55 H15          4.4850    -3.1930    -1.8610 hc         1 6WH       0.088700
     56 H16          4.6060    -1.5170    -2.4670 hc         1 6WH       0.088700
     57 H17          1.8900     0.8870    -0.5080 h1         1 6WH       0.082700
     58 H18          5.6380    -0.6240    -5.2230 h4         1 6WH       0.179000
     59 H19          9.3840    -0.0320    -5.0960 hc         1 6WH       0.107700
     60 H20          8.2710     1.7110    -6.4090 hc         1 6WH       0.076200
     61 H21          6.7610     0.6110    -6.6030 hc         1 6WH       0.076200
     62 H22          2.2150    -2.0290    -0.1700 hn         1 6WH       0.318500
     63 H23          1.6740    -0.8830     1.9530 hc         1 6WH       0.060700
     64 H24          1.8910     2.1330     1.6500 hc         1 6WH       0.052200
     65 H25          1.8910     1.2470     3.1850 hc         1 6WH       0.052200
     66 H26         -0.3590     0.3630     2.6720 hc         1 6WH       0.047700
     67 H27         -0.3590     2.1350     2.6720 hc         1 6WH       0.047700
     68 H28         -1.5920     1.2480     0.7220 hc         1 6WH       0.046200
     69 H29         -0.1440     2.1330     0.2110 hc         1 6WH       0.046200
     70 H30          2.4420    -0.7990    -8.8370 ha         1 6WH       0.145000
     71 H31          2.7710    -1.1270    -6.4200 ha         1 6WH       0.170000
     72 H32         -0.1610    -2.3800   -10.7630 hx         1 6WH       0.113200
     73 H33          1.2740    -1.3470   -10.8080 hx         1 6WH       0.113200
     74 H34         -0.2160     0.1720   -11.3600 hn         1 6WH       0.455467
     75 H35         -0.5050     0.2660    -9.7540 hn         1 6WH       0.455467
     76 H37         -3.4580    -3.6690    -8.4800 h1         1 6WH       0.063033
     77 H38         -2.1740    -4.2610    -7.4180 h1         1 6WH       0.063033
     78 H39         -2.9250    -2.6890    -7.1080 h1         1 6WH       0.063033
     79 H713        -1.4880    -0.6250   -10.6950 hn         1 6WH       0.455467
@<TRIPOS>BOND
     1    38    37 1   
     2    37    34 1   
     3    39    40 1   
     4    39    33 1   
     5    34    33 ar  
     6    34    35 ar  
     7    33    10 ar  
     8    35    36 ar  
     9    10     9 ar  
    10    36     9 ar  
    11     9     8 1   
    12    20    19 2   
    13    20    21 1   
    14    19    18 1   
    15    13    25 1   
    16    13    12 1   
    17     8    25 1   
    18     8    32 2   
    19    21    23 1   
    20    21    22 2   
    21    18    12 1   
    22    18    22 1   
    23    25    14 1   
    24    23    11 1   
    25    23    24 1   
    26    12    15 1   
    27    11    24 1   
    28    26    16 2   
    29    14    15 1   
    30    14    16 1   
    31    16    27 1   
    32    27    17 1   
    33    17     1 1   
    34    17    28 1   
    35     1    31 1   
    36     4     3 ar  
    37     4     5 ar  
    38     3     2 ar  
    39     5     6 ar  
    40     2    28 1   
    41     2     7 ar  
    42    31    30 1   
    43    28    29 1   
    44     6     7 ar  
    45    29    30 1   
    46     1    41 1   
    47     1    42 1   
    48     3    43 1   
    49     4    44 1   
    50     5    45 1   
    51     6    46 1   
    52     7    47 1   
    53    10    48 1   
    54    11    49 1   
    55    11    50 1   
    56    12    51 1   
    57    13    52 1   
    58    13    53 1   
    59    14    54 1   
    60    15    55 1   
    61    15    56 1   
    62    17    57 1   
    63    22    58 1   
    64    23    59 1   
    65    24    60 1   
    66    24    61 1   
    67    27    62 1   
    68    28    63 1   
    69    29    64 1   
    70    29    65 1   
    71    30    66 1   
    72    30    67 1   
    73    31    68 1   
    74    31    69 1   
    75    35    70 1   
    76    36    71 1   
    77    37    72 1   
    78    37    73 1   
    79    38    74 1   
    80    38    75 1   
    81    40    76 1   
    82    40    77 1   
    83    40    78 1   
    84    79    38 1   
@<TRIPOS>SUBSTRUCTURE
     1 6WH         1 TEMP              0 ****  ****    0 ROOT
