@<TRIPOS>MOLECULE
molecule
   33    35     1     0     0
SMALL
bcc


@<TRIPOS>ATOM
      1 F01          0.0000     0.0000     0.0000 f          1 6WL      -0.225300
      2 C02          1.3990     0.0000     0.0000 c3         1 6WL       0.676200
      3 F03          1.8650     0.0000     1.3190 f          1 6WL      -0.225300
      4 F04          1.8660    -1.1410    -0.6600 f          1 6WL      -0.225300
      5 C05          1.9000     1.2320    -0.7100 ca         1 6WL      -0.213300
      6 C06          1.0130     2.1990    -1.1250 ca         1 6WL      -0.033000
      7 C07          1.4640     3.3380    -1.7800 ca         1 6WL      -0.185000
      8 C08          2.7950     3.5190    -2.0240 ca         1 6WL      -0.025000
      9 C09          3.7140     2.5510    -1.6110 ca         1 6WL      -0.244900
     10 C10          3.2640     1.3990    -0.9420 ca         1 6WL       0.018800
     11 N11          4.3710     0.6410    -0.6630 na         1 6WL       0.070900
     12 C12          4.3620    -0.6510     0.0280 c3         1 6WL       0.045600
     13 N13          5.5110     1.2930    -1.1440 nc         1 6WL      -0.466100
     14 C14          5.1730     2.4270    -1.7070 cd         1 6WL       0.433500
     15 C15          6.0960     3.4060    -2.3290 ca         1 6WL      -0.134900
     16 C16          5.8040     3.9430    -3.5810 ca         1 6WL      -0.062000
     17 C17          6.6650     4.8530    -4.1580 ca         1 6WL      -0.195000
     18 C18          7.8230     5.2360    -3.4940 ca         1 6WL       0.155100
     19 O19          8.6680     6.1330    -4.0680 oh         1 6WL      -0.521100
     20 C20          8.1220     4.7050    -2.2480 ca         1 6WL      -0.253000
     21 C21          7.2600     3.7970    -1.6580 ca         1 6WL       0.178100
     22 O22          7.5500     3.2760    -0.4380 oh         1 6WL      -0.476100
     23 H1          -0.0460     2.0700    -0.9400 ha         1 6WL       0.151000
     24 H2           0.7520     4.0900    -2.1010 ha         1 6WL       0.140000
     25 H3           3.1380     4.4100    -2.5360 ha         1 6WL       0.137000
     26 H4           5.3810    -0.9760     0.1990 h1         1 6WL       0.065033
     27 H5           3.8510    -0.5480     0.9780 h1         1 6WL       0.065033
     28 H6           3.8460    -1.3830    -0.5810 h1         1 6WL       0.065033
     29 H7           4.9020     3.6460    -4.1020 ha         1 6WL       0.146000
     30 H8           6.4370     5.2700    -5.1320 ha         1 6WL       0.146000
     31 H9           8.4080     7.0070    -3.8290 ho         1 6WL       0.424000
     32 H10          9.0250     5.0090    -1.7320 ha         1 6WL       0.145000
     33 H11          8.4320     3.5100    -0.1980 ho         1 6WL       0.424000
@<TRIPOS>BOND
     1    19    18 1   
     2    18    17 ar  
     3    18    20 ar  
     4    17    16 ar  
     5    20    21 ar  
     6    16    15 ar  
     7    21    15 ar  
     8    21    22 1   
     9    15    14 1   
    10    14     9 1   
    11    14    13 2   
    12     8     9 ar  
    13     8     7 ar  
    14     9    10 ar  
    15     7     6 ar  
    16    13    11 1   
    17    10    11 1   
    18    10     5 ar  
    19    11    12 1   
    20     6     5 ar  
    21     5     2 1   
    22     3     2 1   
    23     2     1 1   
    24     2     4 1   
    25     6    23 1   
    26     7    24 1   
    27     8    25 1   
    28    12    26 1   
    29    12    27 1   
    30    12    28 1   
    31    16    29 1   
    32    17    30 1   
    33    19    31 1   
    34    20    32 1   
    35    22    33 1   
@<TRIPOS>SUBSTRUCTURE
     1 6WL         1 TEMP              0 ****  ****    0 ROOT
