@<TRIPOS>MOLECULE
molecule
   57    61     1     0     0
SMALL
bcc


@<TRIPOS>ATOM
      1 C01          0.0000     0.0000     0.0000 ca         1 6WM      -0.127500
      2 C02          1.3820     0.0000     0.0000 ca         1 6WM      -0.126500
      3 C03          2.0730     0.0000     1.1980 ca         1 6WM      -0.134000
      4 C04          1.3810     0.0010     2.3940 ca         1 6WM      -0.126500
      5 C05         -0.0010     0.0010     2.3940 ca         1 6WM      -0.127500
      6 C06         -0.6910     0.0070     1.1970 ca         1 6WM      -0.081300
      7 C07         -2.1990     0.0070     1.1960 c3         1 6WM      -0.018100
      8 C08         -2.7090     1.4500     1.2030 c3         1 6WM      -0.077700
      9 C09         -2.3360     2.1530    -0.1310 c3         1 6WM      -0.070400
     10 C10         -3.5550     3.0410    -0.4040 c3         1 6WM      -0.068700
     11 C11         -3.7790     3.4390    -1.8480 c3         1 6WM      -0.058700
     12 C12         -2.6490     4.3220    -2.3760 c3         1 6WM      -0.077400
     13 C13         -2.8590     4.5230    -3.8760 c3         1 6WM      -0.035100
     14 C14         -4.2760     4.9360    -4.1780 ca         1 6WM      -0.061300
     15 C15         -4.5360     5.4740    -5.4310 ca         1 6WM      -0.154000
     16 C16         -5.8180     5.8650    -5.7770 ca         1 6WM       0.102100
     17 O01         -6.0630     6.3920    -7.0060 oh         1 6WM      -0.523100
     18 C17         -6.8530     5.7150    -4.8650 ca         1 6WM      -0.154000
     19 C18         -6.5930     5.1840    -3.6200 ca         1 6WM      -0.118000
     20 C19         -5.3050     4.8000    -3.2690 ca         1 6WM      -0.076300
     21 C20         -5.0760     4.2570    -1.8890 c3         1 6WM      -0.019400
     22 C21         -6.2630     3.4460    -1.3910 c3         1 6WM      -0.075400
     23 C22         -5.9960     2.9090     0.0280 c3         1 6WM      -0.064400
     24 C23         -4.7240     2.0910    -0.0210 c3         1 6WM      -0.081000
     25 C24         -4.8600     0.9930    -1.0790 c3         1 6WM      -0.084100
     26 C25         -4.2560     1.4670     1.2880 c3         1 6WM       0.155100
     27 O02         -4.7590     0.1360     1.4110 oh         1 6WM      -0.599800
     28 H1          -0.5410     0.0020    -0.9380 ha         1 6WM       0.129000
     29 H2           1.9240    -0.0030    -0.9380 ha         1 6WM       0.127500
     30 H3           3.1570     0.0000     1.1980 ha         1 6WM       0.127000
     31 H4           1.9220    -0.0020     3.3330 ha         1 6WM       0.127500
     32 H5          -0.5430     0.0030     3.3320 ha         1 6WM       0.129000
     33 H6          -2.5590    -0.5000     0.3090 hc         1 6WM       0.058700
     34 H7          -2.5600    -0.5080     2.0780 hc         1 6WM       0.058700
     35 H8          -2.2870     1.9950     2.0380 hc         1 6WM       0.055700
     36 H9          -1.4440     2.7550    -0.0090 hc         1 6WM       0.051700
     37 H10         -2.2100     1.4250    -0.9240 hc         1 6WM       0.051700
     38 H11         -3.5460     3.9120     0.2390 hc         1 6WM       0.056700
     39 H12         -3.8790     2.5540    -2.4650 hc         1 6WM       0.068700
     40 H13         -2.6930     5.2850    -1.8820 hc         1 6WM       0.048700
     41 H14         -1.7030     3.8180    -2.2170 hc         1 6WM       0.048700
     42 H15         -2.6610     3.5840    -4.3780 hc         1 6WM       0.054200
     43 H16         -2.1940     5.3090    -4.2130 hc         1 6WM       0.054200
     44 H17         -3.7290     5.5870    -6.1440 ha         1 6WM       0.139000
     45 H18         -5.9580     7.3290    -6.9730 ho         1 6WM       0.417000
     46 H19         -7.8590     6.0190    -5.1280 ha         1 6WM       0.139000
     47 H20         -7.4000     5.0670    -2.9070 ha         1 6WM       0.135000
     48 H21         -4.9530     5.1010    -1.2210 hc         1 6WM       0.055700
     49 H22         -6.4300     2.6110    -2.0610 hc         1 6WM       0.048700
     50 H23         -7.1430     4.0770    -1.3730 hc         1 6WM       0.048700
     51 H24         -6.8220     2.2830     0.3440 hc         1 6WM       0.042700
     52 H25         -5.8730     3.7370     0.7160 hc         1 6WM       0.042700
     53 H26         -5.3330     1.4010    -1.9640 hc         1 6WM       0.043700
     54 H27         -3.8780     0.6160    -1.3370 hc         1 6WM       0.043700
     55 H28         -5.4660     0.1860    -0.6860 hc         1 6WM       0.043700
     56 H29         -4.5760     2.0740     2.1260 h1         1 6WM       0.035700
     57 H30         -5.2510     0.0580     2.2120 ho         1 6WM       0.398000
@<TRIPOS>BOND
     1     4     5 ar
     2     4     3 ar
     3     5     6 ar
     4    27    26 1
     5    26     8 1
     6    26    24 1
     7     3     2 ar
     8     7     6 1
     9     7     8 1
    10     6     1 ar
    11     8     9 1
    12    23    24 1
    13    23    22 1
    14    24    10 1
    15    24    25 1
    16     2     1 ar
    17     9    10 1
    18    10    11 1
    19    22    21 1
    20    21    11 1
    21    21    20 1
    22    11    12 1
    23    12    13 1
    24    20    19 ar
    25    20    14 ar
    26    19    18 ar
    27    13    14 1
    28    14    15 ar
    29    18    16 ar
    30    15    16 ar
    31    16    17 1
    32     1    28 1
    33     2    29 1
    34     3    30 1
    35     4    31 1
    36     5    32 1
    37     7    33 1
    38     7    34 1
    39     8    35 1
    40     9    36 1
    41     9    37 1
    42    10    38 1
    43    11    39 1
    44    12    40 1
    45    12    41 1
    46    13    42 1
    47    13    43 1
    48    15    44 1
    49    17    45 1
    50    18    46 1
    51    19    47 1
    52    21    48 1
    53    22    49 1
    54    22    50 1
    55    23    51 1
    56    23    52 1
    57    25    53 1
    58    25    54 1
    59    25    55 1
    60    26    56 1
    61    27    57 1
@<TRIPOS>SUBSTRUCTURE
     1 6WM         1 TEMP              0 ****  ****    0 ROOT
