@<TRIPOS>MOLECULE
molecule
   53    57     1     0     0
SMALL
bcc


@<TRIPOS>ATOM
      1 O01          0.0000     0.0000     0.0000 o          1 6WN      -0.519100
      2 C01          1.2140     0.0000     0.0000 c          1 6WN       0.595300
      3 C02          2.1010     0.0000     1.2040 c3         1 6WN      -0.175000
      4 C03          2.4710     1.4430     1.5560 c3         1 6WN      -0.087100
      5 C04          1.6160    -0.6930     2.4560 c3         1 6WN      -0.055400
      6 C05          2.7080    -0.5240     3.5290 c3         1 6WN      -0.079400
      7 C06          4.0410    -1.0690     3.0370 c3         1 6WN      -0.020400
      8 C07          5.1280    -0.8930     4.0590 ca         1 6WN      -0.078300
      9 C08          4.7870    -0.9740     5.4020 ca         1 6WN      -0.115000
     10 C09          5.7470    -0.8290     6.3800 ca         1 6WN      -0.161000
     11 C10          7.0680    -0.6000     6.0180 ca         1 6WN       0.105100
     12 O02          8.0230    -0.4610     6.9740 oh         1 6WN      -0.522100
     13 C11          7.4060    -0.5150     4.6780 ca         1 6WN      -0.151000
     14 C12          6.4360    -0.6560     3.6940 ca         1 6WN      -0.060300
     15 C13          6.8750    -0.5210     2.2590 c3         1 6WN      -0.033100
     16 C14          5.8030    -1.0380     1.3010 c3         1 6WN      -0.075400
     17 C15          4.4620    -0.4290     1.7070 c3         1 6WN      -0.059700
     18 C16          3.3730    -0.7450     0.7030 c3         1 6WN      -0.065700
     19 C17          3.5130    -0.0940    -0.6790 c3         1 6WN      -0.039200
     20 C18          2.0610    -0.0070    -1.1470 ce         1 6WN      -0.235400
     21 C19          1.6480     0.0610    -2.4350 cf         1 6WN      -0.012200
     22 C20          2.6330     0.2120    -3.5160 ca         1 6WN      -0.081800
     23 C21          2.2990    -0.1480    -4.8270 ca         1 6WN      -0.113000
     24 C22          3.2280    -0.0030    -5.8350 ca         1 6WN      -0.133000
     25 C23          4.4880     0.4970    -5.5530 ca         1 6WN      -0.115000
     26 C24          4.8260     0.8550    -4.2600 ca         1 6WN      -0.133000
     27 C25          3.9070     0.7220    -3.2410 ca         1 6WN      -0.113000
     28 H1           3.0000     1.8930     0.7250 hc         1 6WN       0.046700
     29 H2           3.1060     1.4490     2.4340 hc         1 6WN       0.046700
     30 H3           1.5690     2.0080     1.7580 hc         1 6WN       0.046700
     31 H4           1.4590    -1.7460     2.2550 hc         1 6WN       0.053700
     32 H5           0.6950    -0.2360     2.7950 hc         1 6WN       0.053700
     33 H6           2.8250     0.5330     3.7380 hc         1 6WN       0.051200
     34 H7           2.4130    -1.0800     4.4110 hc         1 6WN       0.051200
     35 H8           3.9180    -2.1320     2.8670 hc         1 6WN       0.058700
     36 H9           3.7560    -1.1530     5.6840 ha         1 6WN       0.136000
     37 H10          5.4560    -0.7860     7.4220 ha         1 6WN       0.140000
     38 H11          8.2940    -1.3130     7.2740 ho         1 6WN       0.419000
     39 H12          8.4360    -0.3360     4.3950 ha         1 6WN       0.140000
     40 H13          7.7840    -1.0910     2.1130 hc         1 6WN       0.052200
     41 H14          7.0660     0.5230     2.0450 hc         1 6WN       0.052200
     42 H15          5.7470    -2.1180     1.3670 hc         1 6WN       0.047200
     43 H16          6.0460    -0.7410     0.2880 hc         1 6WN       0.047200
     44 H17          4.5600     0.6430     1.8250 hc         1 6WN       0.068700
     45 H18          3.1970    -1.8110     0.6250 hc         1 6WN       0.069700
     46 H19          3.9490     0.8940    -0.5960 hc         1 6WN       0.061200
     47 H20          4.0930    -0.7240    -1.3430 hc         1 6WN       0.061200
     48 H21          0.5900     0.1270    -2.6590 ha         1 6WN       0.153000
     49 H22          1.3140    -0.5400    -5.0480 ha         1 6WN       0.141500
     50 H23          2.9720    -0.2810    -6.8500 ha         1 6WN       0.132000
     51 H24          5.2140     0.6070    -6.3490 ha         1 6WN       0.131000
     52 H25          5.8140     1.2480    -4.0480 ha         1 6WN       0.132000
     53 H26          4.1730     1.0030    -2.2290 ha         1 6WN       0.141500
@<TRIPOS>BOND
     1    25    26 ar  
     2    25    24 ar  
     3    26    27 ar  
     4    24    23 ar  
     5    27    22 ar  
     6    23    22 ar  
     7    22    21 1   
     8    21    20 2   
     9    20    19 1   
    10    20     2 1   
    11    19    18 1   
    12     1     2 2   
    13     2     3 1   
    14     4     3 1   
    15     3    18 1   
    16     3     5 1   
    17    18    17 1   
    18    17    16 1   
    19    17     7 1   
    20    16    15 1   
    21     5     6 1   
    22    15    14 1   
    23     6     7 1   
    24     7     8 1   
    25    14     8 ar  
    26    14    13 ar  
    27     8     9 ar  
    28    13    11 ar  
    29     9    10 ar  
    30    11    10 ar  
    31    11    12 1   
    32     4    28 1   
    33     4    29 1   
    34     4    30 1   
    35     5    31 1   
    36     5    32 1   
    37     6    33 1   
    38     6    34 1   
    39     7    35 1   
    40     9    36 1   
    41    10    37 1   
    42    12    38 1   
    43    13    39 1   
    44    15    40 1   
    45    15    41 1   
    46    16    42 1   
    47    16    43 1   
    48    17    44 1   
    49    18    45 1   
    50    19    46 1   
    51    19    47 1   
    52    21    48 1   
    53    23    49 1   
    54    24    50 1   
    55    25    51 1   
    56    26    52 1   
    57    27    53 1   
@<TRIPOS>SUBSTRUCTURE
     1 6WN         1 TEMP              0 ****  ****    0 ROOT
