@<TRIPOS>MOLECULE
molecule
   57    62     1     0     0
SMALL
bcc


@<TRIPOS>ATOM
      1 C01          0.0000     0.0000     0.0000 ca         1 6WP      -0.097000
      2 C02          1.3770     0.0000     0.0000 ca         1 6WP      -0.152500
      3 C03          2.0750     0.0000     1.2020 ca         1 6WP       0.111100
      4 O01          3.4330     0.0000     1.1960 oh         1 6WP      -0.522100
      5 C04          1.3870    -0.0000     2.4090 ca         1 6WP      -0.152500
      6 C05          0.0090    -0.0010     2.4190 ca         1 6WP      -0.097000
      7 C06         -0.6970    -0.0000     1.2120 ca         1 6WP      -0.052800
      8 C07         -2.1710     0.0050     1.2180 ce         1 6WP      -0.079400
      9 C08         -2.9920    -0.9730     0.7620 cf         1 6WP      -0.086400
     10 C09         -2.5940    -2.2570     0.1580 ca         1 6WP      -0.051800
     11 C10         -2.8950    -2.5260    -1.1810 ca         1 6WP      -0.097000
     12 C11         -2.5210    -3.7280    -1.7400 ca         1 6WP      -0.154000
     13 C12         -1.8460    -4.6720    -0.9770 ca         1 6WP       0.111100
     14 O02         -1.4800    -5.8550    -1.5330 oh         1 6WP      -0.522100
     15 C13         -1.5440    -4.4090     0.3530 ca         1 6WP      -0.154000
     16 C14         -1.9090    -3.2080     0.9200 ca         1 6WP      -0.097000
     17 C15         -4.4190    -0.4690     1.0010 c3         1 6WP       0.193300
     18 O03         -4.2290     0.9760     0.8310 os         1 6WP      -0.380600
     19 C16         -3.0860     1.1120     1.7460 c3         1 6WP       0.171300
     20 C17         -3.6890     0.5460     3.0690 c3         1 6WP      -0.072400
     21 C18         -4.6300    -0.5650     2.5450 c3         1 6WP      -0.233900
     22 S01         -6.3550    -0.2180     2.9850 s6         1 6WP       1.452500
     23 O04         -6.6740     1.1410     2.7220 o          1 6WP      -0.628300
     24 O05         -7.2030    -1.2700     2.5420 o          1 6WP      -0.628300
     25 O06         -6.3880    -0.3240     4.5030 os         1 6WP      -0.476800
     26 C19         -7.6380    -0.4270     5.0230 ca         1 6WP       0.108100
     27 C20         -8.1810    -1.6930     5.3200 ca         1 6WP      -0.022000
     28 C21         -7.4530    -2.8720     5.0890 ca         1 6WP      -0.093000
     29 C22         -8.0100    -4.0770     5.3890 ca         1 6WP      -0.119000
     30 C23         -9.2950    -4.1610     5.9220 ca         1 6WP      -0.119000
     31 C24        -10.0300    -3.0400     6.1580 ca         1 6WP      -0.115000
     32 C25         -9.4880    -1.7790     5.8620 ca         1 6WP      -0.028000
     33 C26        -10.2170    -0.5990     6.0930 ca         1 6WP      -0.100000
     34 C27         -9.6600     0.6080     5.7950 ca         1 6WP      -0.123000
     35 C28         -8.3760     0.6970     5.2660 ca         1 6WP      -0.116000
     36 H1          -0.5430     0.0000    -0.9380 ha         1 6WP       0.138000
     37 H2           1.9180     0.0000    -0.9390 ha         1 6WP       0.143500
     38 H3           3.7480    -0.8880     1.1950 ho         1 6WP       0.421000
     39 H4           1.9340    -0.0000     3.3440 ha         1 6WP       0.143500
     40 H5          -0.5260    -0.0010     3.3610 ha         1 6WP       0.138000
     41 H6          -3.4210    -1.7900    -1.7770 ha         1 6WP       0.139500
     42 H7          -2.7530    -3.9370    -2.7780 ha         1 6WP       0.143000
     43 H8          -2.1710    -6.4860    -1.4150 ho         1 6WP       0.421000
     44 H9          -1.0160    -5.1470     0.9440 ha         1 6WP       0.143000
     45 H10         -1.6730    -3.0040     1.9580 ha         1 6WP       0.139500
     46 H11         -5.1910    -0.9160     0.3860 h1         1 6WP       0.117700
     47 H12         -2.6500     2.1020     1.8060 h1         1 6WP       0.116700
     48 H13         -4.2480     1.3090     3.5960 hc         1 6WP       0.069200
     49 H14         -2.9120     0.1290     3.6990 hc         1 6WP       0.069200
     50 H15         -4.3230    -1.5350     2.9150 h1         1 6WP       0.114700
     51 H16         -6.4530    -2.8220     4.6750 ha         1 6WP       0.131000
     52 H17         -7.4460    -4.9850     5.2110 ha         1 6WP       0.131000
     53 H18         -9.7150    -5.1330     6.1520 ha         1 6WP       0.131000
     54 H19        -11.0270    -3.1210     6.5730 ha         1 6WP       0.135000
     55 H20        -11.2170    -0.6500     6.5040 ha         1 6WP       0.138000
     56 H21        -10.2250     1.5140     5.9790 ha         1 6WP       0.140000
     57 H22         -7.9580     1.6700     5.0390 ha         1 6WP       0.159000
@<TRIPOS>BOND
     1     4     3 1
     2     3     5 ar
     3     3     2 ar
     4     5     6 ar
     5     2     1 ar
     6     6     7 ar
     7     1     7 ar
     8     7     8 1
     9     8     9 2
    10     8    19 1
    11    11    12 ar
    12    11    10 ar
    13    12    13 ar
    14    10     9 1
    15    10    16 ar
    16     9    17 1
    17    13    14 1
    18    13    15 ar
    19    19    18 1
    20    19    20 1
    21    16    15 ar
    22    18    17 1
    23    17    21 1
    24    20    21 1
    25    21    22 1
    26    23    22 2
    27    22    25 1
    28    22    24 2
    29    35    34 ar
    30    35    26 ar
    31    34    33 ar
    32    26    25 1
    33    26    27 ar
    34    33    32 ar
    35    27    32 ar
    36    27    28 ar
    37    32    31 ar
    38    28    29 ar
    39    31    30 ar
    40    29    30 ar
    41     1    36 1
    42     2    37 1
    43     4    38 1
    44     5    39 1
    45     6    40 1
    46    11    41 1
    47    12    42 1
    48    14    43 1
    49    15    44 1
    50    16    45 1
    51    17    46 1
    52    19    47 1
    53    20    48 1
    54    20    49 1
    55    21    50 1
    56    28    51 1
    57    29    52 1
    58    30    53 1
    59    31    54 1
    60    33    55 1
    61    34    56 1
    62    35    57 1
@<TRIPOS>SUBSTRUCTURE
     1 6WP         1 TEMP              0 ****  ****    0 ROOT
