@<TRIPOS>MOLECULE
molecule
   42    45     1     0     0
SMALL
bcc


@<TRIPOS>ATOM
      1 O01          0.0000     0.0000     0.0000 oh         1 6WQ      -0.521600
      2 C02          1.3580     0.0000     0.0000 ca         1 6WQ       0.105600
      3 C03          2.0510     0.0000     1.2040 ca         1 6WQ      -0.155250
      4 C04          3.4290     0.0010     1.2080 ca         1 6WQ      -0.102500
      5 C05          4.1300     0.0000     0.0010 ca         1 6WQ      -0.055800
      6 C06          5.6090    -0.0000     0.0000 ce         1 6WQ      -0.017400
      7 C07          6.3490     1.1960     0.4610 ca         1 6WQ      -0.055800
      8 C08          7.1450     1.1290     1.6050 ca         1 6WQ      -0.102500
      9 C09          7.8330     2.2450     2.0310 ca         1 6WQ      -0.155250
     10 C10          7.7350     3.4350     1.3220 ca         1 6WQ       0.105600
     11 O11          8.4150     4.5330     1.7430 oh         1 6WQ      -0.521600
     12 C12          6.9440     3.5060     0.1820 ca         1 6WQ      -0.155250
     13 C13          6.2570     2.3920    -0.2520 ca         1 6WQ      -0.102500
     14 C14          6.2870    -1.0970    -0.4210 cf         1 6WQ      -0.038400
     15 C15          7.7800    -1.1940    -0.6140 c3         1 6WQ      -0.043200
     16 C16          8.0350    -2.6290    -1.0960 c3         1 6WQ      -0.035100
     17 C17          6.6830    -3.3000    -1.1590 ca         1 6WQ      -0.079300
     18 C18          5.6940    -2.3990    -0.7610 ca         1 6WQ      -0.059800
     19 C19          4.3520    -2.8130    -0.7440 ca         1 6WQ      -0.105000
     20 C20          4.0220    -4.0960    -1.1180 ca         1 6WQ      -0.108000
     21 C21          5.0100    -4.9830    -1.5130 ca         1 6WQ      -0.010900
     22 Br           4.5490    -6.7470    -2.0130 br         1 6WQ      -0.096100
     23 C23          6.3360    -4.5870    -1.5240 ca         1 6WQ      -0.097000
     24 C24          3.4300     0.0000    -1.2080 ca         1 6WQ      -0.102500
     25 C25          2.0510    -0.0050    -1.2030 ca         1 6WQ      -0.155250
     26 H1          -0.3140     0.8890    -0.0020 ho         1 6WQ       0.420000
     27 H2           1.5070     0.0000     2.1410 ha         1 6WQ       0.142750
     28 H3           3.9680     0.0010     2.1480 ha         1 6WQ       0.140250
     29 H5           7.2220     0.2010     2.1590 ha         1 6WQ       0.140250
     30 H6           8.4510     2.1940     2.9190 ha         1 6WQ       0.142750
     31 H7           7.8760     5.0260     2.3390 ho         1 6WQ       0.420000
     32 H8           6.8710     4.4350    -0.3700 ha         1 6WQ       0.142750
     33 H9           5.6400     2.4480    -1.1410 ha         1 6WQ       0.140250
     34 H11          8.0930    -0.4940    -1.3790 hc         1 6WQ       0.065200
     35 H12          8.2790    -1.0360     0.3340 hc         1 6WQ       0.065200
     36 H13          8.4710    -2.6040    -2.0870 hc         1 6WQ       0.060200
     37 H14          8.6590    -3.1450    -0.3760 hc         1 6WQ       0.060200
     38 H15          3.5770    -2.1230    -0.4360 ha         1 6WQ       0.155000
     39 H16          2.9870    -4.4140    -1.1010 ha         1 6WQ       0.147000
     40 H17          7.1040    -5.2850    -1.8340 ha         1 6WQ       0.143000
     41 H18          3.9690    -0.0020    -2.1470 ha         1 6WQ       0.140250
     42 H19          1.5070    -0.0050    -2.1400 ha         1 6WQ       0.142750
@<TRIPOS>BOND
     1    22    21 1   
     2    21    23 ar  
     3    21    20 ar  
     4    23    17 ar  
     5    20    19 ar  
     6    17    18 ar  
     7    17    16 1   
     8    19    18 ar  
     9    18    14 1   
    10    16    15 1   
    11    15    14 1   
    12    14     6 2   
    13    24    25 ar  
    14    24     5 ar  
    15     6     5 1   
    16     6     7 1   
    17    25     2 ar  
    18     8     7 ar  
    19     8     9 ar  
    20     5     4 ar  
    21     7    13 ar  
    22     9    10 ar  
    23    13    12 ar  
    24     2     1 1   
    25     2     3 ar  
    26    10    12 ar  
    27    10    11 1   
    28     4     3 ar  
    29     1    26 1   
    30     3    27 1   
    31     4    28 1   
    32     8    29 1   
    33     9    30 1   
    34    11    31 1   
    35    12    32 1   
    36    13    33 1   
    37    15    34 1   
    38    15    35 1   
    39    16    36 1   
    40    16    37 1   
    41    19    38 1   
    42    20    39 1   
    43    23    40 1   
    44    24    41 1   
    45    25    42 1   
@<TRIPOS>SUBSTRUCTURE
     1 6WQ         1 TEMP              0 ****  ****    0 ROOT
