@<TRIPOS>MOLECULE
molecule
   35    37     1     0     0
SMALL
bcc


@<TRIPOS>ATOM
      1 C01          0.0000     0.0000     0.0000 ca         1 6WR      -0.151000
      2 C02          1.3890     0.0000     0.0000 ca         1 6WR       0.112100
      3 C03          2.0870     0.0000     1.2000 ca         1 6WR      -0.150000
      4 C04          1.4020    -0.0020     2.3980 ca         1 6WR       0.047400
      5 C05          0.0060    -0.0020     2.4020 ca         1 6WR      -0.053800
      6 C06         -0.6910    -0.0020     1.1920 ca         1 6WR      -0.098000
      7 O01          2.0670     0.0010    -1.1770 oh         1 6WR      -0.518100
      8 Cl           2.2750    -0.0030     3.8980 cl         1 6WR      -0.098400
      9 C07         -0.7320    -0.0040     3.6820 ce         1 6WR      -0.077400
     10 C08         -1.3830     1.2670     4.1310 c3         1 6WR      -0.021200
     11 C09         -2.3460     1.0630     5.2650 c3         1 6WR      -0.065700
     12 C10         -1.8480     0.0590     6.3240 c3         1 6WR      -0.069700
     13 C11         -1.5210    -1.2810     5.6560 c3         1 6WR      -0.040200
     14 C12         -0.7890    -1.1190     4.3660 c2         1 6WR      -0.144200
     15 C13         -3.7110     0.4950     4.8500 c3         1 6WR      -0.077400
     16 C14         -4.3200     0.0330     6.1960 c3         1 6WR      -0.099400
     17 C15         -3.1370    -0.1970     7.1570 c3         1 6WR       0.139100
     18 O02         -3.2060     0.7190     8.2510 oh         1 6WR      -0.603800
     19 H1          -0.5410     0.0000    -0.9390 ha         1 6WR       0.145000
     20 H2           3.1700     0.0000     1.1960 ha         1 6WR       0.154000
     21 H3          -1.7740    -0.0020     1.1900 ha         1 6WR       0.144000
     22 H4           2.2610    -0.8870    -1.4290 ho         1 6WR       0.421000
     23 H5          -0.6120     1.9580     4.4500 hc         1 6WR       0.054700
     24 H6          -1.9190     1.6970     3.2940 hc         1 6WR       0.054700
     25 H7          -2.5070     2.0190     5.7500 hc         1 6WR       0.063700
     26 H8          -1.0320     0.4450     6.9220 hc         1 6WR       0.078700
     27 H9          -0.9100    -1.8660     6.3320 hc         1 6WR       0.050700
     28 H10         -2.4470    -1.8100     5.4660 hc         1 6WR       0.050700
     29 H11         -0.2690    -1.9830     3.9690 ha         1 6WR       0.124000
     30 H12         -3.5850    -0.3470     4.1790 hc         1 6WR       0.047200
     31 H13         -4.3230     1.2650     4.3980 hc         1 6WR       0.047200
     32 H14         -4.9720     0.8030     6.5900 hc         1 6WR       0.052200
     33 H15         -4.8680    -0.8900     6.0570 hc         1 6WR       0.052200
     34 H16         -3.1480    -1.2180     7.5190 h1         1 6WR       0.031700
     35 H17         -3.3150     0.2410     9.0560 ho         1 6WR       0.399000
@<TRIPOS>BOND
     1     1     6 ar
     2     1     2 ar
     3     6     5 ar
     4     7     2 1
     5     2     3 ar
     6     5     9 1
     7     5     4 ar
     8     9    10 1
     9     9    14 2
    10     3     4 ar
    11    10    11 1
    12     4     8 1
    13    14    13 1
    14    11    12 1
    15    11    15 1
    16    12    13 1
    17    12    17 1
    18    18    17 1
    19    17    16 1
    20    15    16 1
    21     1    19 1
    22     3    20 1
    23     6    21 1
    24     7    22 1
    25    10    23 1
    26    10    24 1
    27    11    25 1
    28    12    26 1
    29    13    27 1
    30    13    28 1
    31    14    29 1
    32    15    30 1
    33    15    31 1
    34    16    32 1
    35    16    33 1
    36    17    34 1
    37    18    35 1
@<TRIPOS>SUBSTRUCTURE
     1 6WR         1 TEMP              0 ****  ****    0 ROOT
