@<TRIPOS>MOLECULE
molecule
   26    27     1     0     0
SMALL
bcc


@<TRIPOS>ATOM
      1 Cl1          0.0000     0.0000     0.0000 cl         1 6WS      -0.105400
      2 C02          1.7370     0.0000     0.0000 ca         1 6WS       0.037400
      3 C03          2.4270     0.0000     1.2000 ca         1 6WS      -0.123250
      4 C04          3.8060     0.0000     1.2050 ca         1 6WS      -0.094500
      5 C05          4.5050    -0.0000    -0.0000 ca         1 6WS      -0.059800
      6 C06          5.9880    -0.0000    -0.0010 ce         1 6WS       0.000600
      7 C07          6.7300     1.1630    -0.5430 ca         1 6WS      -0.059800
      8 C08          6.6430     2.4030     0.0870 ca         1 6WS      -0.094500
      9 C09          7.3350     3.4830    -0.4210 ca         1 6WS      -0.123250
     10 C10          8.1150     3.3360    -1.5560 ca         1 6WS       0.037400
     11 Cl2          8.9850     4.6980    -2.1900 cl         1 6WS      -0.105400
     12 C12          8.2050     2.1070    -2.1850 ca         1 6WS      -0.123250
     13 C13          7.5200     1.0190    -1.6810 ca         1 6WS      -0.094500
     14 C14          6.6590    -1.0540     0.4900 c2         1 6WS       0.095800
     15 Cl3          8.3940    -1.0540     0.4900 cl         1 6WS      -0.068400
     16 Cl4          5.7910    -2.4160     1.1260 cl         1 6WS      -0.068400
     17 C17          3.8060     0.0000    -1.2060 ca         1 6WS      -0.094500
     18 C18          2.4260    -0.0060    -1.2000 ca         1 6WS      -0.123250
     19 H1           1.8830     0.0000     2.1370 ha         1 6WS       0.148000
     20 H2           4.3450     0.0000     2.1450 ha         1 6WS       0.144000
     21 H3           6.0330     2.5190     0.9750 ha         1 6WS       0.144000
     22 H4           7.2680     4.4470     0.0680 ha         1 6WS       0.148000
     23 H5           8.8180     1.9960    -3.0720 ha         1 6WS       0.148000
     24 H6           7.5910     0.0570    -2.1750 ha         1 6WS       0.144000
     25 H7           4.3440    -0.0020    -2.1460 ha         1 6WS       0.144000
     26 H8           1.8810    -0.0060    -2.1370 ha         1 6WS       0.148000
@<TRIPOS>BOND
     1    15    14 1   
     2    16    14 1   
     3    14     6 2   
     4     6     5 1   
     5     6     7 1   
     6     5     4 ar  
     7     5    17 ar  
     8     4     3 ar  
     9     8     7 ar  
    10     8     9 ar  
    11    17    18 ar  
    12     3     2 ar  
    13     7    13 ar  
    14    18     2 ar  
    15     2     1 1   
    16     9    10 ar  
    17    13    12 ar  
    18    10    12 ar  
    19    10    11 1   
    20     3    19 1   
    21     4    20 1   
    22     8    21 1   
    23     9    22 1   
    24    12    23 1   
    25    13    24 1   
    26    17    25 1   
    27    18    26 1   
@<TRIPOS>SUBSTRUCTURE
     1 6WS         1 TEMP              0 ****  ****    0 ROOT
