@<TRIPOS>MOLECULE
molecule
   28    29     1     0     0
SMALL
bcc


@<TRIPOS>ATOM
      1 C01          0.0000     0.0000     0.0000 ca         1 6WT      -0.103250
      2 C02          1.3820     0.0000     0.0000 ca         1 6WT      -0.122250
      3 C03          2.0740     0.0000     1.1980 ca         1 6WT       0.037900
      4 Cl1          3.8100     0.0020     1.1980 cl         1 6WT      -0.104900
      5 C04          1.3820    -0.0000     2.3950 ca         1 6WT      -0.122250
      6 C05         -0.0000    -0.0010     2.3950 ca         1 6WT      -0.103250
      7 C06         -0.6910    -0.0010     1.1970 ca         1 6WT      -0.102300
      8 C07         -2.1980    -0.0020     1.1970 c3         1 6WT       0.032900
      9 C08         -2.7090     1.3930     0.8320 c3         1 6WT       0.278200
     10 Cl5         -1.9500     1.9260    -0.7140 cl         1 6WT      -0.117733
     11 Cl3         -4.5000     1.3470     0.6380 cl         1 6WT      -0.117733
     12 Cl4         -2.2770     2.5540     2.1430 cl         1 6WT      -0.117733
     13 C09         -2.7000    -1.0000     0.1860 ca         1 6WT      -0.102300
     14 C10         -2.5440    -2.3540     0.4160 ca         1 6WT      -0.103250
     15 C11         -3.0100    -3.2700    -0.5090 ca         1 6WT      -0.122250
     16 C12         -3.6300    -2.8320    -1.6650 ca         1 6WT       0.037900
     17 Cl2         -4.2150    -3.9830    -2.8250 cl         1 6WT      -0.104900
     18 C13         -3.7860    -1.4770    -1.8950 ca         1 6WT      -0.122250
     19 C14         -3.3200    -0.5620    -0.9690 ca         1 6WT      -0.103250
     20 H1          -0.5420     0.0000    -0.9380 ha         1 6WT       0.148250
     21 H2           1.9240     0.0010    -0.9380 ha         1 6WT       0.147750
     22 H3           1.9230    -0.0000     3.3340 ha         1 6WT       0.147750
     23 H4          -0.5420    -0.0020     3.3330 ha         1 6WT       0.148250
     24 H5          -2.5590    -0.2720     2.1820 hc         1 6WT       0.096700
     25 H6          -2.0590    -2.6980     1.3220 ha         1 6WT       0.148250
     26 H7          -2.8880    -4.3320    -0.3280 ha         1 6WT       0.147750
     27 H8          -4.2720    -1.1340    -2.8000 ha         1 6WT       0.147750
     28 H9          -3.4420     0.4990    -1.1490 ha         1 6WT       0.148250
@<TRIPOS>BOND
     1    12     9 1
     2    17    16 1
     3    11     9 1
     4    15    16 ar
     5    15    14 ar
     6    16    18 ar
     7    14    13 ar
     8     9    10 1
     9     9     8 1
    10    18    19 ar
    11    13    19 ar
    12    13     8 1
    13     8     7 1
    14     1     7 ar
    15     1     2 ar
    16     7     6 ar
    17     2     3 ar
    18     6     5 ar
    19     3     5 ar
    20     3     4 1
    21     1    20 1
    22     2    21 1
    23     5    22 1
    24     6    23 1
    25     8    24 1
    26    14    25 1
    27    15    26 1
    28    18    27 1
    29    19    28 1
@<TRIPOS>SUBSTRUCTURE
     1 6WT         1 TEMP              0 ****  ****    0 ROOT
