@<TRIPOS>MOLECULE
molecule
   38    40     1     0     0
SMALL
bcc


@<TRIPOS>ATOM
      1 C01          0.0000     0.0000     0.0000 ca         1 6WU      -0.178000
      2 C02          1.3820     0.0000     0.0000 ca         1 6WU       0.139900
      3 C03         -0.0060    -0.0070     2.4080 ca         1 6WU       0.100900
      4 C04         -0.6950    -0.0010     1.2000 ca         1 6WU       0.092100
      5 C05          2.0790     0.0000     1.2120 ca         1 6WU      -0.070800
      6 C06          1.3750    -0.0010     2.4170 ca         1 6WU      -0.125000
      7 O01         -2.0540     0.0040     1.1960 oh         1 6WU      -0.504100
      8 F01          2.0580     0.0010    -1.1690 f          1 6WU      -0.128900
      9 C07          3.5560    -0.0000     1.2170 ce         1 6WU      -0.079400
     10 C08          4.2660     1.2720     1.5600 c3         1 6WU      -0.020200
     11 C09          5.7300     1.0710     1.8330 c3         1 6WU      -0.062700
     12 C10          6.4030     0.0670     0.8740 c3         1 6WU      -0.053000
     13 C11          5.6630    -1.2730     0.9210 c3         1 6WU      -0.037200
     14 C12          4.1800    -1.1140     0.9250 c2         1 6WU      -0.138200
     15 C13          6.0470     0.4850     3.2170 c3         1 6WU      -0.076400
     16 C14          7.5200     0.0320     3.0740 c3         1 6WU      -0.111400
     17 C15          7.7680    -0.1870     1.5790 c3         1 6WU       0.144100
     18 C16          6.5420     0.6130    -0.5490 c3         1 6WU      -0.064100
     19 O02          8.7470     0.7370     1.1010 oh         1 6WU      -0.601800
     20 F02         -0.6870    -0.0070     3.5740 f          1 6WU      -0.127900
     21 H1          -0.5410     0.0030    -0.9390 ha         1 6WU       0.161000
     22 H2           1.9110    -0.0040     3.3580 ha         1 6WU       0.159000
     23 H3          -2.3710    -0.8740     1.0590 ho         1 6WU       0.424000
     24 H4           3.8050     1.7000     2.4420 hc         1 6WU       0.055200
     25 H5           4.1590     1.9630     0.7330 hc         1 6WU       0.055200
     26 H6           6.2310     2.0270     1.7390 hc         1 6WU       0.066700
     27 H7           5.9470    -1.8580     0.0550 hc         1 6WU       0.053200
     28 H8           5.9580    -1.8030     1.8190 hc         1 6WU       0.053200
     29 H9           3.5790    -1.9780     0.6700 ha         1 6WU       0.123000
     30 H10          5.4060    -0.3620     3.4290 hc         1 6WU       0.047200
     31 H11          5.9550     1.2460     3.9830 hc         1 6WU       0.047200
     32 H12          7.6760    -0.8940     3.6140 hc         1 6WU       0.050700
     33 H13          8.1820     0.8030     3.4490 hc         1 6WU       0.050700
     34 H14          8.0920    -1.2060     1.4020 h1         1 6WU       0.032700
     35 H15          6.8580     1.6480    -0.5100 hc         1 6WU       0.041033
     36 H16          7.2780     0.0300    -1.0890 hc         1 6WU       0.041033
     37 H17          5.5860     0.5470    -1.0560 hc         1 6WU       0.041033
     38 H18          9.5980     0.3310     1.1210 ho         1 6WU       0.399000
@<TRIPOS>BOND
     1    16    17 1
     2    16    15 1
     3    19    17 1
     4    17    12 1
     5    15    11 1
     6    12    11 1
     7    12    13 1
     8    12    18 1
     9    11    10 1
    10    13    14 1
    11    10     9 1
    12    14     9 2
    13     9     5 1
    14     8     2 1
    15     5     2 ar
    16     5     6 ar
    17     2     1 ar
    18     6     3 ar
    19     1     4 ar
    20     3     4 ar
    21     3    20 1
    22     4     7 1
    23     1    21 1
    24     6    22 1
    25     7    23 1
    26    10    24 1
    27    10    25 1
    28    11    26 1
    29    13    27 1
    30    13    28 1
    31    14    29 1
    32    15    30 1
    33    15    31 1
    34    16    32 1
    35    16    33 1
    36    17    34 1
    37    18    35 1
    38    18    36 1
    39    18    37 1
    40    19    38 1
@<TRIPOS>SUBSTRUCTURE
     1 6WU         1 TEMP              0 ****  ****    0 ROOT
