@<TRIPOS>MOLECULE
6WV
   55    59     1     0     0
SMALL
bcc


@<TRIPOS>ATOM
      1 C01          1.5300     0.0000     0.0000 c3         1 6WV      -0.038100
      2 C02          0.0000     0.0000     0.0000 c3         1 6WV      -0.077000
      3 C03         -0.5070     0.0000     1.4260 c3         1 6WV      -0.009400
      4 C04          0.1120    -1.2150     2.1430 c3         1 6WV      -0.036400
      5 C05         -0.2310    -2.5040     1.4090 c3         1 6WV       0.012600
      6 C06          0.3580    -3.7080     2.0840 ca         1 6WV      -0.087300
      7 C07          0.4450    -3.7080     3.4700 ca         1 6WV      -0.091000
      8 C08          0.9630    -4.7950     4.1410 ca         1 6WV      -0.140000
      9 C09          1.4060    -5.8980     3.4250 ca         1 6WV       0.123100
     10 O01          1.9160    -6.9760     4.0770 oh         1 6WV      -0.501100
     11 C10          1.3240    -5.8960     2.0420 ca         1 6WV      -0.144000
     12 C11          0.8030    -4.8000     1.3680 ca         1 6WV      -0.057300
     13 C12          0.7660    -4.8610    -0.1370 c3         1 6WV       0.035900
     14 C13         -0.1510    -3.7810    -0.7120 c3         1 6WV      -0.023400
     15 C14          0.2140    -2.4480    -0.0580 c3         1 6WV      -0.056700
     16 C15         -0.5210    -1.2950    -0.6840 c3         1 6WV      -0.045700
     17 C16         -0.1890    -1.0000    -2.1510 c3         1 6WV      -0.022400
     18 C17         -0.5770     0.4950    -2.3020 c3         1 6WV      -0.052400
     19 C18         -0.5120     1.1080    -0.9120 c3         1 6WV       0.150500
     20 N01          0.4220     2.2380    -0.9110 nu         1 6WV      -0.444600
     21 C19         -0.0410     3.5270    -1.1870 ca         1 6WV       0.071600
     22 C20          0.8430     4.5980    -1.1860 ca         1 6WV      -0.194500
     23 C21          0.3820     5.8710    -1.4600 ca         1 6WV      -0.049000
     24 C22         -0.9570     6.0800    -1.7330 ca         1 6WV      -0.167000
     25 C23         -1.8390     5.0150    -1.7340 ca         1 6WV      -0.049000
     26 C24         -1.3850     3.7380    -1.4660 ca         1 6WV      -0.194500
     27 H01          1.8910    -0.9140     0.4550 hc         1 6WV       0.023033
     28 H03          1.8910     0.8510     0.5640 hc         1 6WV       0.023033
     29 H02          1.8910     0.0630    -1.0190 hc         1 6WV       0.023033
     30 H05         -1.5870    -0.0840     1.4310 hc         1 6WV       0.020200
     31 H04         -0.2020     0.9130     1.9230 hc         1 6WV       0.020200
     32 H06          1.1890    -1.0990     2.1500 hc         1 6WV       0.027200
     33 H07         -0.2960    -1.2700     3.1450 hc         1 6WV       0.027200
     34 H08         -1.3080    -2.6130     1.4230 hc         1 6WV       0.035700
     35 H09          0.0990    -2.8470     4.0290 ha         1 6WV       0.113000
     36 H10          0.9290    -4.8300     5.2230 ha         1 6WV       0.115000
     37 H11          2.8510    -6.8820     4.1560 ho         1 6WV       0.401000
     38 H12          1.6690    -6.7560     1.4830 ha         1 6WV       0.115000
     39 H14          0.4000    -5.8340    -0.4420 hc         1 6WV       0.020200
     40 H13          1.7680    -4.7160    -0.5220 hc         1 6WV       0.020200
     41 H15         -0.0060    -3.7130    -1.7830 hc         1 6WV       0.020200
     42 H16         -1.1830    -4.0250    -0.4920 hc         1 6WV       0.020200
     43 H17          1.2830    -2.2840    -0.1170 hc         1 6WV       0.054700
     44 H18         -1.5900    -1.3970    -0.5450 hc         1 6WV       0.042700
     45 H20         -0.7870    -1.6180    -2.8090 hc         1 6WV       0.020700
     46 H19          0.8690    -1.1400    -2.3380 hc         1 6WV       0.020700
     47 H21         -1.5840     0.5770    -2.6940 hc         1 6WV       0.024200
     48 H22          0.1240     0.9950    -2.9590 hc         1 6WV       0.024200
     49 H23         -1.4980     1.4280    -0.5970 h1         1 6WV       0.049700
     50 H24          1.3980     2.0810    -0.7560 hn         1 6WV       0.308800
     51 H25          1.8930     4.4360    -0.9720 ha         1 6WV       0.111000
     52 H26          1.0710     6.7080    -1.4600 ha         1 6WV       0.096000
     53 H27         -1.3160     7.0800    -1.9450 ha         1 6WV       0.103000
     54 H28         -2.8880     5.1820    -1.9500 ha         1 6WV       0.096000
     55 H29         -2.0760     2.9050    -1.4670 ha         1 6WV       0.111000
@<TRIPOS>BOND
     1     1     2 1   
     2     1    27 1   
     3     1    28 1   
     4     1    29 1   
     5     2     3 1   
     6     2    16 1   
     7     2    19 1   
     8     3     4 1   
     9     3    30 1   
    10     3    31 1   
    11     4     5 1   
    12     4    32 1   
    13     4    33 1   
    14     5     6 1   
    15     5    15 1   
    16     5    34 1   
    17     6     7 ar  
    18     6    12 ar  
    19     7     8 ar  
    20     7    35 1   
    21     8     9 ar  
    22     8    36 1   
    23     9    10 1   
    24     9    11 ar  
    25    10    37 1   
    26    11    12 ar  
    27    11    38 1   
    28    12    13 1   
    29    13    14 1   
    30    13    39 1   
    31    13    40 1   
    32    14    15 1   
    33    14    41 1   
    34    14    42 1   
    35    15    16 1   
    36    15    43 1   
    37    16    17 1   
    38    16    44 1   
    39    17    18 1   
    40    17    45 1   
    41    17    46 1   
    42    18    19 1   
    43    18    47 1   
    44    18    48 1   
    45    19    20 1   
    46    19    49 1   
    47    20    21 1   
    48    20    50 1   
    49    21    22 ar  
    50    21    26 ar  
    51    22    23 ar  
    52    22    51 1   
    53    23    24 ar  
    54    23    52 1   
    55    24    25 ar  
    56    24    53 1   
    57    25    26 ar  
    58    25    54 1   
    59    26    55 1   
@<TRIPOS>SUBSTRUCTURE
     1 6WV         1 TEMP              0 ****  ****    0 ROOT
