@<TRIPOS>MOLECULE
molecule
   58    62     1     0     0
SMALL
bcc


@<TRIPOS>ATOM
      1 C01          0.0000     0.0000     0.0000 ca         1 6WW      -0.152000
      2 C02          1.3870     0.0000     0.0000 ca         1 6WW       0.102100
      3 C03          2.0730     0.0000     1.2020 ca         1 6WW      -0.156000
      4 C04          1.3860    -0.0010     2.4080 ca         1 6WW      -0.060300
      5 C05          0.0060     0.0080     2.4040 ca         1 6WW      -0.075300
      6 C06         -0.6820     0.0090     1.1980 ca         1 6WW      -0.117000
      7 C07          2.1990    -0.0250     3.6750 c3         1 6WW      -0.033100
      8 C08          1.3480     0.3540     4.8870 c3         1 6WW      -0.075400
      9 C09          0.0630    -0.4720     4.8460 c3         1 6WW      -0.059700
     10 C10         -0.7890     0.0380     3.6760 c3         1 6WW      -0.019400
     11 C11         -0.7610    -0.2960     6.1040 c3         1 6WW      -0.066700
     12 C12         -1.9840    -1.2450     5.9650 c3         1 6WW      -0.088000
     13 C13         -2.8810    -0.6980     4.8730 c3         1 6WW      -0.069400
     14 C14         -2.0890    -0.7440     3.5520 c3         1 6WW      -0.075400
     15 C15         -0.1250    -0.8040     7.4020 c3         1 6WW      -0.077400
     16 C16         -1.3540    -1.0550     8.3180 c3         1 6WW      -0.100400
     17 C17         -2.5620    -1.2820     7.3750 c3         1 6WW       0.256500
     18 N01         -3.1740    -2.5880     7.6380 nh         1 6WW      -0.730000
     19 C18         -1.5060    -2.6460     5.5810 c3         1 6WW      -0.086100
     20 C19         -2.3680    -3.6720     8.2050 c3         1 6WW       0.225100
     21 C20         -4.5240    -2.7970     7.3500 ca         1 6WW       0.206600
     22 O01          2.0690     0.0000    -1.1760 oh         1 6WW      -0.523100
     23 H1          -0.5440     0.0000    -0.9370 ha         1 6WW       0.139000
     24 H2           3.1570     0.0000     1.2010 ha         1 6WW       0.138000
     25 H3          -1.7660     0.0090     1.1980 ha         1 6WW       0.136000
     26 H4           2.5970    -1.0220     3.8210 hc         1 6WW       0.051700
     27 H5           3.0170     0.6790     3.5830 hc         1 6WW       0.051700
     28 H6           1.1040     1.4090     4.8450 hc         1 6WW       0.046700
     29 H7           1.8930     0.1350     5.7970 hc         1 6WW       0.046700
     30 H8           0.3000    -1.5190     4.7010 hc         1 6WW       0.067700
     31 H9          -1.0450     1.0710     3.8810 hc         1 6WW       0.057700
     32 H10         -1.0860     0.7320     6.2120 hc         1 6WW       0.059700
     33 H11         -3.1530     0.3260     5.1010 hc         1 6WW       0.050200
     34 H12         -3.7700    -1.3100     4.7880 hc         1 6WW       0.050200
     35 H13         -1.8610    -1.7750     3.3100 hc         1 6WW       0.047700
     36 H14         -2.6900    -0.3110     2.7610 hc         1 6WW       0.047700
     37 H15          0.5220    -0.0480     7.8310 hc         1 6WW       0.047200
     38 H16          0.4150    -1.7270     7.2270 hc         1 6WW       0.047200
     39 H17         -1.1890    -1.9360     8.9270 hc         1 6WW       0.054200
     40 H18         -1.5310    -0.1900     8.9450 hc         1 6WW       0.054200
     41 H19         -3.2890    -0.4880     7.5020 h1         1 6WW       0.066700
     42 H21         -2.3520    -3.3210     5.5510 hc         1 6WW       0.041033
     43 H22         -0.7900    -2.9960     6.3150 hc         1 6WW       0.041033
     44 H23         -1.0360    -2.6120     4.6060 hc         1 6WW       0.041033
     45 H24         -2.5520    -4.5860     7.6520 h1         1 6WW       0.037033
     46 C4          -6.5870    -2.0320     6.3970 ca         1 6WW      -0.084500
     47 H26         -2.6390    -3.8190     9.2430 h1         1 6WW       0.037033
     48 H30          2.2610    -0.8880    -1.4280 ho         1 6WW       0.417000
     49 C1          -5.1410    -3.9810     7.7310 ca         1 6WW      -0.211000
     50 C2          -6.4770    -4.1850     7.4450 ca         1 6WW      -0.084500
     51 C3          -7.1990    -3.2130     6.7780 ca         1 6WW      -0.187000
     52 C5          -5.2540    -1.8190     6.6850 ca         1 6WW      -0.211000
     53 H20         -4.5760    -4.7430     8.2540 ha         1 6WW       0.133000
     54 H25         -6.9590    -5.1080     7.7430 ha         1 6WW       0.125500
     55 H27         -8.2460    -3.3760     6.5530 ha         1 6WW       0.126000
     56 H28         -4.7750    -0.8940     6.3860 ha         1 6WW       0.133000
     57 H29         -1.3180    -3.4150     8.1380 h1         1 6WW       0.037033
     58 H31         -7.1560    -1.2720     5.8760 ha         1 6WW       0.125500
@<TRIPOS>BOND
     1    15    16 1   
     2    15    11 1   
     3    16    17 1   
     4     8     7 1   
     5     8     9 1   
     6     7     4 1   
     7    11     9 1   
     8    11    12 1   
     9    17    12 1   
    10    17    18 1   
    11    19    12 1   
    12     9    10 1   
    13    20    18 1   
    14    12    13 1   
    15     4     3 ar  
    16     4     5 ar  
    17     3     2 ar  
    18    10     5 1   
    19    10    14 1   
    20    13    14 1   
    21     5     6 ar  
    22     2    22 1   
    23     2     1 ar  
    24     6     1 ar  
    25     1    23 1   
    26     3    24 1   
    27     6    25 1   
    28     7    26 1   
    29     7    27 1   
    30     8    28 1   
    31     8    29 1   
    32     9    30 1   
    33    10    31 1   
    34    11    32 1   
    35    13    33 1   
    36    13    34 1   
    37    14    35 1   
    38    14    36 1   
    39    15    37 1   
    40    15    38 1   
    41    16    39 1   
    42    16    40 1   
    43    17    41 1   
    44    19    42 1   
    45    19    43 1   
    46    19    44 1   
    47    20    45 1   
    48    20    47 1   
    49    22    48 1   
    50    21    49 ar  
    51    49    50 ar  
    52    50    51 ar  
    53    51    46 ar  
    54    46    52 ar  
    55    52    21 ar  
    56    18    21 1   
    57    49    53 1   
    58    50    54 1   
    59    51    55 1   
    60    52    56 1   
    61    20    57 1   
    62    46    58 1   
@<TRIPOS>SUBSTRUCTURE
     1 6WW         1 TEMP              0 ****  ****    0 ROOT
