@<TRIPOS>MOLECULE
6WW
   58    62     1     0     0
SMALL
bcc


@<TRIPOS>ATOM
      1 C01          0.0000     0.0000     0.0000 ca         1 6WW      -0.137000
      2 C02          1.3870     0.0000     0.0000 ca         1 6WW       0.121100
      3 C03          2.0730     0.0000     1.2020 ca         1 6WW      -0.144000
      4 C04          1.3860    -0.0010     2.4080 ca         1 6WW      -0.057300
      5 C05          0.0060     0.0080     2.4040 ca         1 6WW      -0.086300
      6 C06         -0.6820     0.0090     1.1980 ca         1 6WW      -0.092000
      7 C07          2.1990    -0.0250     3.6750 c3         1 6WW       0.035900
      8 C08          1.3480     0.3540     4.8870 c3         1 6WW      -0.024400
      9 C09          0.0630    -0.4720     4.8460 c3         1 6WW      -0.054700
     10 C10         -0.7890     0.0380     3.6760 c3         1 6WW       0.014600
     11 C11         -0.7610    -0.2960     6.1040 c3         1 6WW      -0.043700
     12 C12         -1.9840    -1.2450     5.9650 c3         1 6WW      -0.087000
     13 C13         -2.8810    -0.6980     4.8730 c3         1 6WW      -0.023400
     14 C14         -2.0890    -0.7440     3.5520 c3         1 6WW      -0.034400
     15 C15         -0.1250    -0.8040     7.4020 c3         1 6WW      -0.022400
     16 C16         -1.3540    -1.0550     8.3180 c3         1 6WW      -0.053400
     17 C17         -2.5620    -1.2820     7.3750 c3         1 6WW       0.162500
     18 N01         -3.1740    -2.5880     7.6380 nh         1 6WW      -0.378000
     19 C18         -1.5060    -2.6460     5.5810 c3         1 6WW      -0.043100
     20 C19         -2.3680    -3.6720     8.2050 c3         1 6WW       0.185100
     21 C20         -4.5240    -2.7970     7.3500 ca         1 6WW       0.083600
     22 O01          2.0690     0.0000    -1.1760 oh         1 6WW      -0.501100
     23 H1          -0.5440     0.0000    -0.9370 ha         1 6WW       0.113000
     24 H2           3.1570     0.0000     1.2010 ha         1 6WW       0.115000
     25 H3          -1.7660     0.0090     1.1980 ha         1 6WW       0.114000
     26 H4           2.5970    -1.0220     3.8210 hc         1 6WW       0.020200
     27 H5           3.0170     0.6790     3.5830 hc         1 6WW       0.020200
     28 H6           1.1040     1.4090     4.8450 hc         1 6WW       0.019700
     29 H7           1.8930     0.1350     5.7970 hc         1 6WW       0.019700
     30 H8           0.3000    -1.5190     4.7010 hc         1 6WW       0.053700
     31 H9          -1.0450     1.0710     3.8810 hc         1 6WW       0.034700
     32 H10         -1.0860     0.7320     6.2120 hc         1 6WW       0.040700
     33 H11         -3.1530     0.3260     5.1010 hc         1 6WW       0.027200
     34 H12         -3.7700    -1.3100     4.7880 hc         1 6WW       0.027200
     35 H13         -1.8610    -1.7750     3.3100 hc         1 6WW       0.025700
     36 H14         -2.6900    -0.3110     2.7610 hc         1 6WW       0.025700
     37 H15          0.5220    -0.0480     7.8310 hc         1 6WW       0.021200
     38 H16          0.4150    -1.7270     7.2270 hc         1 6WW       0.021200
     39 H17         -1.1890    -1.9360     8.9270 hc         1 6WW       0.028700
     40 H18         -1.5310    -0.1900     8.9450 hc         1 6WW       0.028700
     41 H19         -3.2890    -0.4880     7.5020 h1         1 6WW       0.045700
     42 H21         -2.3520    -3.3210     5.5510 hc         1 6WW       0.023700
     43 H22         -0.7900    -2.9960     6.3150 hc         1 6WW       0.023700
     44 H23         -1.0360    -2.6120     4.6060 hc         1 6WW       0.023700
     45 H24         -2.5520    -4.5860     7.6520 h1         1 6WW       0.013033
     46 C4          -6.5870    -2.0320     6.3970 ca         1 6WW      -0.050000
     47 H26         -2.6390    -3.8190     9.2430 h1         1 6WW       0.013033
     48 H30          2.2610    -0.8880    -1.4280 ho         1 6WW       0.401000
     49 C1          -5.1410    -3.9810     7.7310 ca         1 6WW      -0.202000
     50 C2          -6.4770    -4.1850     7.4450 ca         1 6WW      -0.050000
     51 C3          -7.1990    -3.2130     6.7780 ca         1 6WW      -0.166000
     52 C5          -5.2540    -1.8190     6.6850 ca         1 6WW      -0.202000
     53 H20         -4.5760    -4.7430     8.2540 ha         1 6WW       0.120500
     54 H25         -6.9590    -5.1080     7.7430 ha         1 6WW       0.096000
     55 H27         -8.2460    -3.3760     6.5530 ha         1 6WW       0.103000
     56 H28         -4.7750    -0.8940     6.3860 ha         1 6WW       0.120500
     57 H29         -1.3180    -3.4150     8.1380 h1         1 6WW       0.013033
     58 H31         -7.1560    -1.2720     5.8760 ha         1 6WW       0.096000
@<TRIPOS>BOND
     1     1     2 ar  
     2     1     6 ar  
     3     1    23 1   
     4     2     3 ar  
     5     2    22 1   
     6     3     4 ar  
     7     3    24 1   
     8     4     5 ar  
     9     4     7 1   
    10     5     6 ar  
    11     5    10 1   
    12     6    25 1   
    13     7     8 1   
    14     7    26 1   
    15     7    27 1   
    16     8     9 1   
    17     8    28 1   
    18     8    29 1   
    19     9    10 1   
    20     9    11 1   
    21     9    30 1   
    22    10    14 1   
    23    10    31 1   
    24    11    12 1   
    25    11    15 1   
    26    11    32 1   
    27    12    13 1   
    28    12    17 1   
    29    12    19 1   
    30    13    14 1   
    31    13    33 1   
    32    13    34 1   
    33    14    35 1   
    34    14    36 1   
    35    15    16 1   
    36    15    37 1   
    37    15    38 1   
    38    16    17 1   
    39    16    39 1   
    40    16    40 1   
    41    17    18 1   
    42    17    41 1   
    43    18    20 1   
    44    18    21 1   
    45    19    42 1   
    46    19    43 1   
    47    19    44 1   
    48    20    45 1   
    49    20    47 1   
    50    20    57 1   
    51    21    49 ar  
    52    21    52 ar  
    53    22    48 1   
    54    46    51 ar  
    55    46    52 ar  
    56    46    58 1   
    57    49    50 ar  
    58    49    53 1   
    59    50    51 ar  
    60    50    54 1   
    61    51    55 1   
    62    52    56 1   
@<TRIPOS>SUBSTRUCTURE
     1 6WW         1 TEMP              0 ****  ****    0 ROOT
