@<TRIPOS>MOLECULE
molecule
   55    58     1     0     0
SMALL
bcc


@<TRIPOS>ATOM
      1 OAE          0.0000     0.0000     0.0000 o          1 6WX      -0.673500
      2 CBA          1.2160     0.0000     0.0000 c          1 6WX       0.822500
      3 NAT          1.8600     0.0000     1.1780 ns         1 6WX      -0.556500
      4 CAZ          3.2090     0.0010     1.2390 c          1 6WX       0.717100
      5 OAD          3.7830     0.0010     2.3110 o          1 6WX      -0.602500
      6 CBB          3.9660     0.0010    -0.0250 ca         1 6WX      -0.207600
      7 CAK          5.3580     0.0020    -0.0450 ca         1 6WX      -0.023000
      8 CAG          6.0200     0.0030    -1.2550 ca         1 6WX      -0.173000
      9 CAH          5.3080     0.0030    -2.4450 ca         1 6WX      -0.063000
     10 CAL          3.9270     0.0020    -2.4380 ca         1 6WX      -0.196000
     11 CBC          3.2450     0.0010    -1.2330 ca         1 6WX       0.104600
     12 NBF          1.8590    -0.0040    -1.1810 n          1 6WX      -0.361000
     13 CAS          1.0870    -0.0100    -2.4270 c3         1 6WX       0.163300
     14 CAW          0.8280    -1.4310    -2.8520 ca         1 6WX      -0.147300
     15 CAM         -0.3060    -2.0830    -2.4170 ca         1 6WX      -0.057000
     16 CAI          1.7270    -2.0780    -3.6840 ca         1 6WX      -0.072000
     17 CAJ          1.4980    -3.3820    -4.0790 ca         1 6WX      -0.177000
     18 CAX          0.3670    -4.0510    -3.6460 ca         1 6WX       0.195900
     19 FAF          0.1450    -5.3260    -4.0330 f          1 6WX      -0.117900
     20 CAY         -0.5460    -3.4010    -2.8110 ca         1 6WX      -0.187600
     21 CAV         -1.7560    -4.1070    -2.3440 c          1 6WX       0.685700
     22 OAC         -2.4770    -4.6740    -3.1420 o          1 6WX      -0.586100
     23 N           -2.0620    -4.1230    -1.0310 n          1 6WX      -0.495800
     24 CAQ         -3.2060    -4.8980    -0.5200 c3         1 6WX       0.094000
     25 CAP         -2.6730    -5.9510     0.4540 c3         1 6WX       0.087000
     26 CA          -1.2630    -3.3750    -0.0500 c3         1 6WX       0.028000
     27 C           -1.0520    -4.2360     1.1650 c          1 6WX       0.689500
     28 O           -0.2270    -3.8890     1.9840 o          1 6WX      -0.653500
     29 NBD         -1.7240    -5.3590     1.3860 n          1 6WX      -0.474800
     30 CAO         -1.4930    -6.0530     2.6550 c3         1 6WX       0.097000
     31 CAN         -2.4770    -5.5380     3.7060 c3         1 6WX      -0.103400
     32 CAA         -2.2360    -6.2640     5.0310 c3         1 6WX      -0.090100
     33 H1           1.3300    -0.0010     2.0270 hn         1 6WX       0.370500
     34 H2           5.9170     0.0020     0.8830 ha         1 6WX       0.162000
     35 H3           7.1030     0.0030    -1.2760 ha         1 6WX       0.142000
     36 H4           5.8400     0.0030    -3.3890 ha         1 6WX       0.138000
     37 H5           3.3800     0.0030    -3.3730 ha         1 6WX       0.140000
     38 H6           1.6460     0.5020    -3.2000 h1         1 6WX       0.079700
     39 H7           0.1430     0.4980    -2.2680 h1         1 6WX       0.079700
     40 H8          -1.0100    -1.5740    -1.7690 ha         1 6WX       0.165000
     41 H9           2.6140    -1.5590    -4.0260 ha         1 6WX       0.139000
     42 H10          2.2050    -3.8810    -4.7300 ha         1 6WX       0.153000
     43 H11         -3.7120    -5.3870    -1.3440 h1         1 6WX       0.074700
     44 H12         -3.8910    -4.2370    -0.0030 h1         1 6WX       0.074700
     45 H13         -2.1790    -6.7350    -0.1070 h1         1 6WX       0.053700
     46 H14         -3.5020    -6.3710     1.0100 h1         1 6WX       0.053700
     47 H15         -0.3040    -3.1190    -0.4830 h1         1 6WX       0.089700
     48 H16         -1.7920    -2.4730     0.2340 h1         1 6WX       0.089700
     49 H17         -0.4790    -5.8680     2.9880 h1         1 6WX       0.063700
     50 H18         -1.6380    -7.1180     2.5150 h1         1 6WX       0.063700
     51 H19         -3.4910    -5.7220     3.3720 hc         1 6WX       0.047200
     52 H20         -2.3320    -4.4730     3.8460 hc         1 6WX       0.047200
     53 H21         -2.4220    -7.3230     4.9010 hc         1 6WX       0.036033
     54 H22         -1.2100    -6.1130     5.3440 hc         1 6WX       0.036033
     55 H23         -2.9060    -5.8700     5.7860 hc         1 6WX       0.036033
@<TRIPOS>BOND
     1    19    18 1   
     2    32    31 1   
     3    18    17 ar  
     4    18    20 ar  
     5    17    16 ar  
     6    24    23 1   
     7    24    25 1   
     8    31    30 1   
     9    23    21 1   
    10    23    26 1   
    11    20    21 1   
    12    20    15 ar  
    13    16    14 ar  
    14    21    22 2   
    15    26    27 1   
    16    27    28 2   
    17    27    29 1   
    18    29    25 1   
    19    29    30 1   
    20    15    14 ar  
    21    14    13 1   
    22     9    10 ar  
    23     9     8 ar  
    24    10    11 ar  
    25    13    12 1   
    26     8     7 ar  
    27    11    12 1   
    28    11     6 ar  
    29    12     2 1   
    30     7     6 ar  
    31     6     4 1   
    32     2     1 2   
    33     2     3 1   
    34     4     3 1   
    35     4     5 2   
    36     3    33 1   
    37     7    34 1   
    38     8    35 1   
    39     9    36 1   
    40    10    37 1   
    41    13    38 1   
    42    13    39 1   
    43    15    40 1   
    44    16    41 1   
    45    17    42 1   
    46    24    43 1   
    47    24    44 1   
    48    25    45 1   
    49    25    46 1   
    50    26    47 1   
    51    26    48 1   
    52    30    49 1   
    53    30    50 1   
    54    31    51 1   
    55    31    52 1   
    56    32    53 1   
    57    32    54 1   
    58    32    55 1   
@<TRIPOS>SUBSTRUCTURE
     1 6WX         1 TEMP              0 ****  ****    0 ROOT
