@<TRIPOS>MOLECULE
6WX
   55    58     1     0     0
SMALL
bcc


@<TRIPOS>ATOM
      1 OAE          0.0000     0.0000     0.0000 o          1 6WX      -0.725500
      2 CBA          1.2160     0.0000     0.0000 c          1 6WX       0.602500
      3 NAT          1.8600     0.0000     1.1780 ns         1 6WX      -0.124500
      4 CAZ          3.2090     0.0010     1.2390 c          1 6WX       0.631100
      5 OAD          3.7830     0.0010     2.3110 o          1 6WX      -0.640500
      6 CBB          3.9660     0.0010    -0.0250 ca         1 6WX      -0.215600
      7 CAK          5.3580     0.0020    -0.0450 ca         1 6WX       0.015000
      8 CAG          6.0200     0.0030    -1.2550 ca         1 6WX      -0.147000
      9 CAH          5.3080     0.0030    -2.4450 ca         1 6WX      -0.029000
     10 CAL          3.9270     0.0020    -2.4380 ca         1 6WX      -0.182000
     11 CBC          3.2450     0.0010    -1.2330 ca         1 6WX      -0.039400
     12 NBF          1.8590    -0.0040    -1.1810 n          1 6WX       0.046000
     13 CAS          1.0870    -0.0100    -2.4270 c3         1 6WX       0.091300
     14 CAW          0.8280    -1.4310    -2.8520 ca         1 6WX      -0.149300
     15 CAM         -0.3060    -2.0830    -2.4170 ca         1 6WX      -0.037000
     16 CAI          1.7270    -2.0780    -3.6840 ca         1 6WX      -0.052000
     17 CAJ          1.4980    -3.3820    -4.0790 ca         1 6WX      -0.141000
     18 CAX          0.3670    -4.0510    -3.6460 ca         1 6WX       0.173900
     19 FAF          0.1450    -5.3260    -4.0330 f          1 6WX      -0.113900
     20 CAY         -0.5460    -3.4010    -2.8110 ca         1 6WX      -0.185600
     21 CAV         -1.7560    -4.1070    -2.3440 c          1 6WX       0.623700
     22 OAC         -2.4770    -4.6740    -3.1420 o          1 6WX      -0.625100
     23 N           -2.0620    -4.1230    -1.0310 n          1 6WX      -0.162800
     24 CAQ         -3.2060    -4.8980    -0.5200 c3         1 6WX       0.042000
     25 CAP         -2.6730    -5.9510     0.4540 c3         1 6WX       0.033000
     26 CA          -1.2630    -3.3750    -0.0500 c3         1 6WX      -0.037000
     27 C           -1.0520    -4.2360     1.1650 c          1 6WX       0.609500
     28 O           -0.2270    -3.8890     1.9840 o          1 6WX      -0.693500
     29 NBD         -1.7240    -5.3590     1.3860 n          1 6WX      -0.125800
     30 CAO         -1.4930    -6.0530     2.6550 c3         1 6WX       0.034000
     31 CAN         -2.4770    -5.5380     3.7060 c3         1 6WX      -0.048400
     32 CAA         -2.2360    -6.2640     5.0310 c3         1 6WX       0.012900
     33 H1           1.3300    -0.0010     2.0270 hn         1 6WX       0.211500
     34 H2           5.9170     0.0020     0.8830 ha         1 6WX       0.128000
     35 H3           7.1030     0.0030    -1.2760 ha         1 6WX       0.113000
     36 H4           5.8400     0.0030    -3.3890 ha         1 6WX       0.104000
     37 H5           3.3800     0.0030    -3.3730 ha         1 6WX       0.127000
     38 H6           1.6460     0.5020    -3.2000 h1         1 6WX       0.050200
     39 H7           0.1430     0.4980    -2.2680 h1         1 6WX       0.050200
     40 H8          -1.0100    -1.5740    -1.7690 ha         1 6WX       0.141000
     41 H9           2.6140    -1.5590    -4.0260 ha         1 6WX       0.114000
     42 H10          2.2050    -3.8810    -4.7300 ha         1 6WX       0.125000
     43 H11         -3.7120    -5.3870    -1.3440 h1         1 6WX       0.045700
     44 H12         -3.8910    -4.2370    -0.0030 h1         1 6WX       0.045700
     45 H13         -2.1790    -6.7350    -0.1070 h1         1 6WX       0.027200
     46 H14         -3.5020    -6.3710     1.0100 h1         1 6WX       0.027200
     47 H15         -0.3040    -3.1190    -0.4830 h1         1 6WX       0.062200
     48 H16         -1.7920    -2.4730     0.2340 h1         1 6WX       0.062200
     49 H17         -0.4790    -5.8680     2.9880 h1         1 6WX       0.038200
     50 H18         -1.6380    -7.1180     2.5150 h1         1 6WX       0.038200
     51 H19         -3.4910    -5.7220     3.3720 hc         1 6WX       0.019200
     52 H20         -2.3320    -4.4730     3.8460 hc         1 6WX       0.019200
     53 H21         -2.4220    -7.3230     4.9010 hc         1 6WX       0.002700
     54 H22         -1.2100    -6.1130     5.3440 hc         1 6WX       0.002700
     55 H23         -2.9060    -5.8700     5.7860 hc         1 6WX       0.002700
@<TRIPOS>BOND
     1     1     2 2   
     2     2     3 1   
     3     2    12 1   
     4     3     4 1   
     5     3    33 1   
     6     4     5 2   
     7     4     6 1   
     8     6     7 ar  
     9     6    11 ar  
    10     7     8 ar  
    11     7    34 1   
    12     8     9 ar  
    13     8    35 1   
    14     9    10 ar  
    15     9    36 1   
    16    10    11 ar  
    17    10    37 1   
    18    11    12 1   
    19    12    13 1   
    20    13    14 1   
    21    13    38 1   
    22    13    39 1   
    23    14    15 ar  
    24    14    16 ar  
    25    15    20 ar  
    26    15    40 1   
    27    16    17 ar  
    28    16    41 1   
    29    17    18 ar  
    30    17    42 1   
    31    18    19 1   
    32    18    20 ar  
    33    20    21 1   
    34    21    22 2   
    35    21    23 1   
    36    23    24 1   
    37    23    26 1   
    38    24    25 1   
    39    24    43 1   
    40    24    44 1   
    41    25    29 1   
    42    25    45 1   
    43    25    46 1   
    44    26    27 1   
    45    26    47 1   
    46    26    48 1   
    47    27    28 2   
    48    27    29 1   
    49    29    30 1   
    50    30    31 1   
    51    30    49 1   
    52    30    50 1   
    53    31    32 1   
    54    31    51 1   
    55    31    52 1   
    56    32    53 1   
    57    32    54 1   
    58    32    55 1   
@<TRIPOS>SUBSTRUCTURE
     1 6WX         1 TEMP              0 ****  ****    0 ROOT
