@<TRIPOS>MOLECULE
6WY
   52    55     1     0     0
SMALL
bcc


@<TRIPOS>ATOM
      1 OAE          0.0000     0.0000     0.0000 o          1 6WY      -0.720500
      2 CAZ          1.2150     0.0000     0.0000 c          1 6WY       0.601500
      3 NAS          1.8570     0.0000     1.1800 ns         1 6WY      -0.132500
      4 CAY          3.2060    -0.0000     1.2430 c          1 6WY       0.632100
      5 OAD          3.7800     0.0000     2.3150 o          1 6WY      -0.642500
      6 CBA          3.9650    -0.0020    -0.0210 ca         1 6WY      -0.216600
      7 CAK          5.3580    -0.0020    -0.0390 ca         1 6WY       0.015000
      8 CAG          6.0210    -0.0030    -1.2480 ca         1 6WY      -0.146000
      9 CAH          5.3110    -0.0030    -2.4380 ca         1 6WY      -0.027000
     10 CAL          3.9290    -0.0030    -2.4340 ca         1 6WY      -0.181000
     11 CBB          3.2450    -0.0020    -1.2280 ca         1 6WY      -0.039400
     12 NBE          1.8590    -0.0070    -1.1790 n          1 6WY       0.050000
     13 CAR          1.0890    -0.0130    -2.4250 c3         1 6WY       0.091300
     14 CAV          0.8260     1.4060    -2.8600 ca         1 6WY      -0.150300
     15 CAM         -0.3090     2.0590    -2.4250 ca         1 6WY      -0.037000
     16 CAI          1.7250     2.0520    -3.6900 ca         1 6WY      -0.052000
     17 CAJ          1.4930     3.3530    -4.0950 ca         1 6WY      -0.141000
     18 CAW          0.3570     4.0190    -3.6710 ca         1 6WY       0.174900
     19 FAF          0.1310     5.2910    -4.0650 f          1 6WY      -0.113900
     20 CAX         -0.5530     3.3730    -2.8280 ca         1 6WY      -0.184600
     21 CAU         -1.7660     4.0780    -2.3660 c          1 6WY       0.623700
     22 OAC         -1.6750     5.1890    -1.8790 o          1 6WY      -0.624100
     23 N           -2.9730     3.4910    -2.4840 n          1 6WY      -0.161800
     24 CAP         -4.2100     4.2010    -2.1190 c3         1 6WY       0.042000
     25 CAO         -5.0820     4.3170    -3.3700 c3         1 6WY       0.033000
     26 CA          -3.1090     2.1160    -2.9900 c3         1 6WY      -0.035000
     27 C           -4.2680     2.0620    -3.9480 c          1 6WY       0.609500
     28 O           -4.3970     1.0790    -4.6450 o          1 6WY      -0.690500
     29 NBC         -5.1570     3.0410    -4.0680 n          1 6WY      -0.127800
     30 CAN         -6.2930     2.8230    -4.9670 c3         1 6WY       0.036000
     31 CAA         -7.4470     2.1900    -4.1860 c3         1 6WY      -0.012100
     32 H1           1.3260     0.0000     2.0280 hn         1 6WY       0.208500
     33 H2           5.9150    -0.0020     0.8900 ha         1 6WY       0.128000
     34 H3           7.1040    -0.0030    -1.2680 ha         1 6WY       0.113000
     35 H4           5.8440    -0.0040    -3.3810 ha         1 6WY       0.104000
     36 H5           3.3830    -0.0030    -3.3700 ha         1 6WY       0.127000
     37 H6           0.1460    -0.5220    -2.2650 h1         1 6WY       0.051200
     38 H7           1.6510    -0.5280    -3.1950 h1         1 6WY       0.051200
     39 H8          -1.0100     1.5520    -1.7730 ha         1 6WY       0.142000
     40 H9           2.6160     1.5350    -4.0240 ha         1 6WY       0.114000
     41 H10          2.2020     3.8530    -4.7440 ha         1 6WY       0.125000
     42 H11         -4.7400     3.6420    -1.3570 h1         1 6WY       0.046200
     43 H12         -3.9670     5.1910    -1.7510 h1         1 6WY       0.046200
     44 H13         -6.0810     4.6230    -3.0810 h1         1 6WY       0.027200
     45 H14         -4.6550     5.0600    -4.0330 h1         1 6WY       0.027200
     46 H15         -2.2000     1.8290    -3.5050 h1         1 6WY       0.058200
     47 H16         -3.2920     1.4430    -2.1620 h1         1 6WY       0.058200
     48 H17         -6.6130     3.7710    -5.3810 h1         1 6WY       0.036200
     49 H18         -5.9950     2.1600    -5.7710 h1         1 6WY       0.036200
     50 H19         -7.0640     1.4010    -3.5510 hc         1 6WY       0.008700
     51 H20         -8.1690     1.7770    -4.8810 hc         1 6WY       0.008700
     52 H21         -7.9260     2.9460    -3.5750 hc         1 6WY       0.008700
@<TRIPOS>BOND
     1     1     2 2   
     2     2     3 1   
     3     2    12 1   
     4     3     4 1   
     5     3    32 1   
     6     4     5 2   
     7     4     6 1   
     8     6     7 ar  
     9     6    11 ar  
    10     7     8 ar  
    11     7    33 1   
    12     8     9 ar  
    13     8    34 1   
    14     9    10 ar  
    15     9    35 1   
    16    10    11 ar  
    17    10    36 1   
    18    11    12 1   
    19    12    13 1   
    20    13    14 1   
    21    13    37 1   
    22    13    38 1   
    23    14    15 ar  
    24    14    16 ar  
    25    15    20 ar  
    26    15    39 1   
    27    16    17 ar  
    28    16    40 1   
    29    17    18 ar  
    30    17    41 1   
    31    18    19 1   
    32    18    20 ar  
    33    20    21 1   
    34    21    22 2   
    35    21    23 1   
    36    23    24 1   
    37    23    26 1   
    38    24    25 1   
    39    24    42 1   
    40    24    43 1   
    41    25    29 1   
    42    25    44 1   
    43    25    45 1   
    44    26    27 1   
    45    26    46 1   
    46    26    47 1   
    47    27    28 2   
    48    27    29 1   
    49    29    30 1   
    50    30    31 1   
    51    30    48 1   
    52    30    49 1   
    53    31    50 1   
    54    31    51 1   
    55    31    52 1   
@<TRIPOS>SUBSTRUCTURE
     1 6WY         1 TEMP              0 ****  ****    0 ROOT
