@<TRIPOS>MOLECULE
molecule
   52    55     1     0     0
SMALL
bcc


@<TRIPOS>ATOM
      1 OAE          0.0000     0.0000     0.0000 o          1 6WY      -0.667500
      2 CAZ          1.2150     0.0000     0.0000 c          1 6WY       0.821500
      3 NAS          1.8570     0.0000     1.1800 ns         1 6WY      -0.561500
      4 CAY          3.2060    -0.0000     1.2430 c          1 6WY       0.716100
      5 OAD          3.7800     0.0000     2.3150 o          1 6WY      -0.605500
      6 CBA          3.9650    -0.0020    -0.0210 ca         1 6WY      -0.208600
      7 CAK          5.3580    -0.0020    -0.0390 ca         1 6WY      -0.023000
      8 CAG          6.0210    -0.0030    -1.2480 ca         1 6WY      -0.172000
      9 CAH          5.3110    -0.0030    -2.4380 ca         1 6WY      -0.062000
     10 CAL          3.9290    -0.0030    -2.4340 ca         1 6WY      -0.196000
     11 CBB          3.2450    -0.0020    -1.2280 ca         1 6WY       0.104600
     12 NBE          1.8590    -0.0070    -1.1790 n          1 6WY      -0.359000
     13 CAR          1.0890    -0.0130    -2.4250 c3         1 6WY       0.163300
     14 CAV          0.8260     1.4060    -2.8600 ca         1 6WY      -0.148300
     15 CAM         -0.3090     2.0590    -2.4250 ca         1 6WY      -0.056000
     16 CAI          1.7250     2.0520    -3.6900 ca         1 6WY      -0.072000
     17 CAJ          1.4930     3.3530    -4.0950 ca         1 6WY      -0.177000
     18 CAW          0.3570     4.0190    -3.6710 ca         1 6WY       0.195900
     19 FAF          0.1310     5.2910    -4.0650 f          1 6WY      -0.116900
     20 CAX         -0.5530     3.3730    -2.8280 ca         1 6WY      -0.187600
     21 CAU         -1.7660     4.0780    -2.3660 c          1 6WY       0.686700
     22 OAC         -1.6750     5.1890    -1.8790 o          1 6WY      -0.584100
     23 N           -2.9730     3.4910    -2.4840 n          1 6WY      -0.495800
     24 CAP         -4.2100     4.2010    -2.1190 c3         1 6WY       0.094000
     25 CAO         -5.0820     4.3170    -3.3700 c3         1 6WY       0.087000
     26 CA          -3.1090     2.1160    -2.9900 c3         1 6WY       0.028000
     27 C           -4.2680     2.0620    -3.9480 c          1 6WY       0.689500
     28 O           -4.3970     1.0790    -4.6450 o          1 6WY      -0.653500
     29 NBC         -5.1570     3.0410    -4.0680 n          1 6WY      -0.474800
     30 CAN         -6.2930     2.8230    -4.9670 c3         1 6WY       0.095000
     31 CAA         -7.4470     2.1900    -4.1860 c3         1 6WY      -0.111100
     32 H1           1.3260     0.0000     2.0280 hn         1 6WY       0.366500
     33 H2           5.9150    -0.0020     0.8900 ha         1 6WY       0.162000
     34 H3           7.1040    -0.0030    -1.2680 ha         1 6WY       0.142000
     35 H4           5.8440    -0.0040    -3.3810 ha         1 6WY       0.138000
     36 H5           3.3830    -0.0030    -3.3700 ha         1 6WY       0.141000
     37 H6           0.1460    -0.5220    -2.2650 h1         1 6WY       0.080200
     38 H7           1.6510    -0.5280    -3.1950 h1         1 6WY       0.080200
     39 H8          -1.0100     1.5520    -1.7730 ha         1 6WY       0.166000
     40 H9           2.6160     1.5350    -4.0240 ha         1 6WY       0.139000
     41 H10          2.2020     3.8530    -4.7440 ha         1 6WY       0.154000
     42 H11         -4.7400     3.6420    -1.3570 h1         1 6WY       0.075200
     43 H12         -3.9670     5.1910    -1.7510 h1         1 6WY       0.075200
     44 H13         -6.0810     4.6230    -3.0810 h1         1 6WY       0.054200
     45 H14         -4.6550     5.0600    -4.0330 h1         1 6WY       0.054200
     46 H15         -2.2000     1.8290    -3.5050 h1         1 6WY       0.085700
     47 H16         -3.2920     1.4430    -2.1620 h1         1 6WY       0.085700
     48 H17         -6.6130     3.7710    -5.3810 h1         1 6WY       0.063200
     49 H18         -5.9950     2.1600    -5.7710 h1         1 6WY       0.063200
     50 H19         -7.0640     1.4010    -3.5510 hc         1 6WY       0.041367
     51 H20         -8.1690     1.7770    -4.8810 hc         1 6WY       0.041367
     52 H21         -7.9260     2.9460    -3.5750 hc         1 6WY       0.041367
@<TRIPOS>BOND
     1     5     4 2
     2     3     4 1
     3     3     2 1
     4     4     6 1
     5     1     2 2
     6     2    12 1
     7     6     7 ar
     8     6    11 ar
     9     7     8 ar
    10    12    11 1
    11    12    13 1
    12    11    10 ar
    13    13    14 1
    14     8     9 ar
    15    10     9 ar
    16    15    14 ar
    17    15    20 ar
    18    14    16 ar
    19    28    27 2
    20    27    26 1
    21    27    29 1
    22    24    23 1
    23    24    25 1
    24    26    23 1
    25    23    21 1
    26    21    20 1
    27    21    22 2
    28    20    18 ar
    29    30    29 1
    30    30    31 1
    31    16    17 ar
    32    29    25 1
    33    18    17 ar
    34    18    19 1
    35     3    32 1
    36     7    33 1
    37     8    34 1
    38     9    35 1
    39    10    36 1
    40    13    37 1
    41    13    38 1
    42    15    39 1
    43    16    40 1
    44    17    41 1
    45    24    42 1
    46    24    43 1
    47    25    44 1
    48    25    45 1
    49    26    46 1
    50    26    47 1
    51    30    48 1
    52    30    49 1
    53    31    50 1
    54    31    51 1
    55    31    52 1
@<TRIPOS>SUBSTRUCTURE
     1 6WY         1 TEMP              0 ****  ****    0 ROOT
