@<TRIPOS>MOLECULE
molecule
   56    59     1     0     0
SMALL
bcc


@<TRIPOS>ATOM
      1 OAD          0.0000     0.0000     0.0000 o          1 6WZ      -0.667500
      2 CBA          1.2150     0.0000     0.0000 c          1 6WZ       0.818500
      3 NAU          1.8580     0.0000     1.1780 ns         1 6WZ      -0.563500
      4 CAZ          3.2080    -0.0010     1.2410 c          1 6WZ       0.715100
      5 OAC          3.7820    -0.0000     2.3130 o          1 6WZ      -0.604500
      6 CBB          3.9650    -0.0020    -0.0230 ca         1 6WZ      -0.210600
      7 CAM          5.3580    -0.0020    -0.0430 ca         1 6WZ      -0.024000
      8 CAI          6.0200    -0.0030    -1.2530 ca         1 6WZ      -0.172000
      9 CAJ          5.3090    -0.0030    -2.4420 ca         1 6WZ      -0.061000
     10 CAN          3.9280    -0.0030    -2.4360 ca         1 6WZ      -0.194000
     11 CBC          3.2450    -0.0030    -1.2310 ca         1 6WZ       0.103600
     12 NBG          1.8580    -0.0060    -1.1810 n          1 6WZ      -0.360000
     13 CAR          1.0870    -0.0110    -2.4260 c3         1 6WZ       0.162300
     14 CAW          0.8270    -1.4340    -2.8500 ca         1 6WZ      -0.151300
     15 CAO         -0.3070    -2.0850    -2.4150 ca         1 6WZ      -0.057000
     16 CAK          1.7260    -2.0820    -3.6800 ca         1 6WZ      -0.076000
     17 CAL          1.4960    -3.3870    -4.0750 ca         1 6WZ      -0.178000
     18 CAX          0.3650    -4.0540    -3.6420 ca         1 6WZ       0.191900
     19 FAE          0.1410    -5.3290    -4.0280 f          1 6WZ      -0.117900
     20 CAY         -0.5490    -3.4020    -2.8080 ca         1 6WZ      -0.182600
     21 CAV         -1.7590    -4.1080    -2.3400 c          1 6WZ       0.679700
     22 OAB         -2.5050    -4.6340    -3.1420 o          1 6WZ      -0.588100
     23 NBE         -2.0380    -4.1670    -1.0220 n          1 6WZ      -0.488800
     24 CAS         -1.1970    -3.4640    -0.0410 c3         1 6WZ       0.102000
     25 CBD         -0.7940    -4.4570     1.0550 c3         1 6WZ       0.157500
     26 CAA         -0.0500    -3.7170     2.1670 c3         1 6WZ      -0.097100
     27 CAP         -3.1930    -4.9310    -0.5280 c3         1 6WZ       0.116000
     28 CAQ         -2.7160    -5.8700     0.5850 c3         1 6WZ       0.126800
     29 NBF         -2.0000    -5.0870     1.6080 n3         1 6WZ      -0.722600
     30 CAT         -1.6760    -5.9180     2.7750 c3         1 6WZ       0.105800
     31 CBH         -2.9320    -6.1110     3.6280 c3         1 6WZ       0.618900
     32 FAG         -2.5940    -6.7770     4.8100 f          1 6WZ      -0.224633
     33 FAH         -3.4830    -4.8630     3.9370 f          1 6WZ      -0.224633
     34 FAF         -3.8670    -6.8700     2.9170 f          1 6WZ      -0.224633
     35 H1           1.3280     0.0010     2.0260 hn         1 6WZ       0.365500
     36 H2           5.9170    -0.0020     0.8850 ha         1 6WZ       0.162000
     37 H3           7.1030    -0.0030    -1.2730 ha         1 6WZ       0.143000
     38 H4           5.8410    -0.0040    -3.3860 ha         1 6WZ       0.139000
     39 H5           3.3800    -0.0030    -3.3710 ha         1 6WZ       0.142000
     40 H6           1.6470     0.4990    -3.2000 h1         1 6WZ       0.081200
     41 H7           0.1430     0.4970    -2.2680 h1         1 6WZ       0.081200
     42 H8          -1.0110    -1.5740    -1.7690 ha         1 6WZ       0.167000
     43 H9           2.6140    -1.5630    -4.0220 ha         1 6WZ       0.138000
     44 H10          2.2040    -3.8880    -4.7250 ha         1 6WZ       0.153000
     45 H11         -1.7570    -2.6470     0.3980 h1         1 6WZ       0.069200
     46 H12         -0.3090    -3.0840    -0.5300 h1         1 6WZ       0.069200
     47 H13         -0.1530    -5.2200     0.6310 h1         1 6WZ       0.034700
     48 H14          0.5060    -4.4290     2.7660 hc         1 6WZ       0.046367
     49 H15         -0.7620    -3.1960     2.7940 hc         1 6WZ       0.046367
     50 H16          0.6360    -3.0020     1.7280 hc         1 6WZ       0.046367
     51 H17         -3.6160    -5.5140    -1.3380 h1         1 6WZ       0.073200
     52 H18         -3.9380    -4.2500    -0.1350 h1         1 6WZ       0.073200
     53 H19         -3.5710    -6.3570     1.0370 h1         1 6WZ       0.057700
     54 H20         -2.0480    -6.6130     0.1680 h1         1 6WZ       0.057700
     55 H22         -1.3140    -6.8830     2.4420 h1         1 6WZ       0.072700
     56 H23         -0.9100    -5.4290     3.3650 h1         1 6WZ       0.072700
@<TRIPOS>BOND
     1    19    18 1   
     2    33    31 1   
     3    18    17 ar  
     4    18    20 ar  
     5    17    16 ar  
     6    30    31 1   
     7    30    29 1   
     8    31    34 1   
     9    31    32 1   
    10    27    23 1   
    11    27    28 1   
    12    24    23 1   
    13    24    25 1   
    14    23    21 1   
    15    21    20 1   
    16    21    22 2   
    17    20    15 ar  
    18    16    14 ar  
    19    28    29 1   
    20    29    25 1   
    21    25    26 1   
    22    15    14 ar  
    23    14    13 1   
    24     9    10 ar  
    25     9     8 ar  
    26    10    11 ar  
    27     8     7 ar  
    28    13    12 1   
    29    11    12 1   
    30    11     6 ar  
    31    12     2 1   
    32     7     6 ar  
    33     6     4 1   
    34     2     1 2   
    35     2     3 1   
    36     4     3 1   
    37     4     5 2   
    38     3    35 1   
    39     7    36 1   
    40     8    37 1   
    41     9    38 1   
    42    10    39 1   
    43    13    40 1   
    44    13    41 1   
    45    15    42 1   
    46    16    43 1   
    47    17    44 1   
    48    24    45 1   
    49    24    46 1   
    50    25    47 1   
    51    26    48 1   
    52    26    49 1   
    53    26    50 1   
    54    27    51 1   
    55    27    52 1   
    56    28    53 1   
    57    28    54 1   
    58    30    55 1   
    59    30    56 1   
@<TRIPOS>SUBSTRUCTURE
     1 6WZ         1 TEMP              0 ****  ****    0 ROOT
