@<TRIPOS>MOLECULE
6X1
   30    31     1     0     0
SMALL
bcc


@<TRIPOS>ATOM
      1 CAA          0.0000     0.0000     0.0000 ca         1 6X1      -0.065400
      2 CAB          1.4030     0.0000     0.0000 ca         1 6X1      -0.133600
      3 NAC         -0.7000    -0.0060    -1.2050 ns         1 6X1      -0.013100
      4 CAD         -0.6880    -0.0020     1.2070 ca         1 6X1      -0.142000
      5 CAE          2.0930     0.0000     1.2160 ca         1 6X1      -0.050000
      6 CAF          2.1450     0.0010    -1.2730 c          1 6X1       0.989200
      7 CAG         -1.8590    -0.6850    -1.3070 c          1 6X1       0.541100
      8 CAH          0.0080    -0.0020     2.3980 ca         1 6X1      -0.112000
      9 CAI          1.3930    -0.0010     2.4030 ca         1 6X1      -0.155000
     10 OAJ          1.5450     0.0920    -2.3260 o          1 6X1      -0.888800
     11 OAK          3.4890    -0.0990    -1.2700 o          1 6X1      -0.888800
     12 NAL         -2.4890    -0.7670    -2.4960 ns         1 6X1      -0.052100
     13 OAM         -2.3360    -1.2250    -0.3280 o          1 6X1      -0.720100
     14 CAN         -3.6230    -1.5750    -2.6320 ca         1 6X1      -0.018400
     15 CAO         -4.5700    -1.2860    -3.6060 ca         1 6X1      -0.143000
     16 CAP         -3.8010    -2.6710    -1.7980 ca         1 6X1      -0.143000
     17 CAQ         -5.6900    -2.0860    -3.7390 ca         1 6X1       0.003400
     18 CAR         -4.9220    -3.4670    -1.9350 ca         1 6X1       0.003400
     19 CAS         -5.8670    -3.1740    -2.9030 ca         1 6X1      -0.148000
     20 ClAT        -6.8740    -1.7250    -4.9570 cl         1 6X1      -0.047400
     21 ClAU        -5.1460    -4.8370    -0.8930 cl         1 6X1      -0.047400
     22 HNAC        -0.3700     0.5390    -1.9770 hn         1 6X1       0.217500
     23 HAD         -1.7710    -0.0020     1.2120 ha         1 6X1       0.134000
     24 HAE          3.1760     0.0000     1.2250 ha         1 6X1       0.127000
     25 HAH         -0.5340    -0.0030     3.3370 ha         1 6X1       0.083000
     26 HAI          1.9290    -0.0010     3.3450 ha         1 6X1       0.084000
     27 HNAL        -2.1430    -0.2540    -3.2820 hn         1 6X1       0.172500
     28 HAO         -4.4320    -0.4340    -4.2610 ha         1 6X1       0.148500
     29 HAP         -3.0610    -2.9010    -1.0400 ha         1 6X1       0.148500
     30 HAS         -6.7450    -3.8000    -3.0090 ha         1 6X1       0.118000
@<TRIPOS>BOND
     1     1     2 ar  
     2     1     3 1   
     3     1     4 ar  
     4     2     5 ar  
     5     2     6 1   
     6     3     7 1   
     7     3    22 1   
     8     4     8 ar  
     9     4    23 1   
    10     5     9 ar  
    11     5    24 1   
    12     6    10 1   
    13     6    11 1   
    14     7    12 1   
    15     7    13 2   
    16     8     9 ar  
    17     8    25 1   
    18     9    26 1   
    19    12    14 1   
    20    12    27 1   
    21    14    15 ar  
    22    14    16 ar  
    23    15    17 ar  
    24    15    28 1   
    25    16    18 ar  
    26    16    29 1   
    27    17    19 ar  
    28    17    20 1   
    29    18    19 ar  
    30    18    21 1   
    31    19    30 1   
@<TRIPOS>SUBSTRUCTURE
     1 6X1         1 TEMP              0 ****  ****    0 ROOT
