@<TRIPOS>MOLECULE
molecule
   63    67     1     0     0
SMALL
bcc


@<TRIPOS>ATOM
      1 C13          0.0000     0.0000     0.0000 ca         1 6X3       0.072600
      2 C15          2.0780     0.0000     1.1970 ca         1 6X3      -0.098500
      3 C16          1.3860     0.0020     2.3950 ca         1 6X3      -0.096300
      4 C17          0.0030     0.0070     2.3980 ca         1 6X3      -0.098500
      5 C19          2.1410     0.0020     3.6990 c3         1 6X3       0.180700
      6 C21          3.2800     1.4140     5.1950 ca         1 6X3       0.084100
      7 N02         -1.4420     2.7940    -3.9570 na         1 6X3       0.025900
      8 C03         -2.4590     2.8270    -4.8490 cc         1 6X3      -0.095300
      9 C04         -3.0400     3.6240    -6.1220 cc         1 6X3      -0.194000
     10 C05         -4.2650     2.9870    -6.5330 cd         1 6X3      -0.252100
     11 S06         -4.5210     1.7980    -5.5840 ss         1 6X3       0.252200
     12 C07         -3.3430     1.7570    -4.5480 cd         1 6X3      -0.238100
     13 C08         -2.8470     1.0990    -3.4840 cd         1 6X3      -0.105000
     14 C09         -1.6590     1.7320    -3.0990 cc         1 6X3      -0.158900
     15 C10         -0.6420     1.2010    -2.0600 c          1 6X3       0.707700
     16 O11         -0.0030     2.1410    -1.7270 o          1 6X3      -0.566100
     17 N12         -0.7000     0.0240    -1.2110 ns         1 6X3      -0.526100
     18 C14          1.3890     0.0000     0.0000 ca         1 6X3      -0.130000
     19 C18         -0.6920     0.0060     1.2040 ca         1 6X3      -0.130000
     20 O20          2.5630     1.3060     3.9930 os         1 6X3      -0.322900
     21 C22          4.6400     1.1790     5.3190 ca         1 6X3      -0.121500
     22 C23          5.3630     1.8040     6.3230 ca         1 6X3      -0.113500
     23 C24          4.7260     2.6650     7.2030 ca         1 6X3       0.114100
     24 C25          3.3650     2.9000     7.0790 ca         1 6X3      -0.113500
     25 C26          2.6420     2.2740     6.0750 ca         1 6X3      -0.121500
     26 O27          5.4410     3.2320     8.2700 os         1 6X3      -0.350900
     27 C28          5.2710     4.6690     8.2560 c3         1 6X3      -0.287900
     28 C29          6.5610     5.3060     7.8210 c3         1 6X3      -0.075900
     29 C30          7.6700     5.1180     8.8530 c3         1 6X3       0.130800
     30 N31          7.2530     5.5670    10.2140 n3         1 6X3      -0.714600
     31 C32          5.9670     4.9310    10.6490 c3         1 6X3       0.130800
     32 C33          4.8550     5.1190     9.6160 c3         1 6X3      -0.075900
     33 C34          8.2990     5.2480    11.1720 c3         1 6X3       0.147100
     34 H1           3.1610    -0.0040     1.1970 ha         1 6X3       0.135500
     35 H2          -0.3860     4.4080    -4.7370 h1         1 6X3       0.060700
     36 H3          -0.3010     4.2330    -2.9790 h1         1 6X3       0.060700
     37 H4           0.6100     3.1330    -4.0230 h1         1 6X3       0.060700
     38 H5          -0.5370     0.0080     3.3370 ha         1 6X3       0.135500
     39 H6           3.0040    -0.6470     3.6160 h1         1 6X3       0.031200
     40 H7           1.4940    -0.3560     4.4900 h1         1 6X3       0.031200
     41 H9          -4.9260     3.3270    -7.3220 h4         1 6X3       0.195000
     42 H10         -3.2900     0.2320    -3.0080 ha         1 6X3       0.149000
     43 H11         -1.2130    -0.7830    -1.5080 hn         1 6X3       0.326500
     44 H12          1.9300    -0.0550    -0.9370 ha         1 6X3       0.139000
     45 H13         -1.7740    -0.0460     1.2070 ha         1 6X3       0.139000
     46 H14          5.1380     0.5060     4.6310 ha         1 6X3       0.148500
     47 H15          6.4260     1.6200     6.4200 ha         1 6X3       0.154000
     48 H16          2.8670     3.5720     7.7670 ha         1 6X3       0.154000
     49 H17          1.5790     2.4580     5.9780 ha         1 6X3       0.148500
     50 H18          5.3860     3.5920     8.2780 h1         1 6X3       0.368700
     51 H19          6.8740     4.8600     6.8850 hc         1 6X3       0.070200
     52 H20          6.3960     6.3660     7.6730 hc         1 6X3       0.070200
     53 H21          8.5360     5.6910     8.5450 h1         1 6X3       0.033700
     54 H22          7.9340     4.0680     8.8960 h1         1 6X3       0.033700
     55 H24          6.1330     3.8710    10.7960 h1         1 6X3       0.033700
     56 H25          5.6550     5.3770    11.5850 h1         1 6X3       0.033700
     57 H26          4.5900     6.1690     9.5730 hc         1 6X3       0.070200
     58 H27          3.9890     4.5450     9.9250 hc         1 6X3       0.070200
     59 H28          8.4430     4.1750    11.2050 h1         1 6X3       0.030367
     60 H29          9.2230     5.7270    10.8700 h1         1 6X3       0.030367
     61 H30          8.0110     5.6040    12.1530 h1         1 6X3       0.030367
     62 H8          -2.5880     4.4910    -6.5890 ha         1 6X3       0.162000
     63 C01         -0.3080     3.6990    -3.9220 c3         1 6X3       0.035600
@<TRIPOS>BOND
     1    33    30 1
     2    29    30 1
     3    29    28 1
     4    30    31 1
     5    28    27 1
     6    31    32 1
     7    27    32 1
     8    27    26 1
     9    26    23 1
    10    24    23 ar
    11    24    25 ar
    12    23    22 ar
    13    25     6 ar
    14    22    21 ar
    15     5    20 1
    16     5     3 1
    17     6    21 ar
    18     6    20 1
    19     3     2 ar
    20     3     4 ar
    21     2    18 ar
    22     4    19 ar
    23    18     1 ar
    24    19     1 ar
    25     1    17 1
    26    16    15 2
    27    17    15 1
    28    15    14 1
    29    63     7 1
    30    14     7 1
    31    14    13 2
    32     7     8 1
    33    13    12 1
    34     8    12 2
    35     8     9 1
    36    12    11 1
    37     9    10 2
    38    10    11 1
    39     2    34 1
    40    63    35 1
    41    63    36 1
    42    63    37 1
    43     4    38 1
    44     5    39 1
    45     5    40 1
    46     9    62 1
    47    10    41 1
    48    13    42 1
    49    17    43 1
    50    18    44 1
    51    19    45 1
    52    21    46 1
    53    22    47 1
    54    24    48 1
    55    25    49 1
    56    27    50 1
    57    28    51 1
    58    28    52 1
    59    29    53 1
    60    29    54 1
    61    31    55 1
    62    31    56 1
    63    32    57 1
    64    32    58 1
    65    33    59 1
    66    33    60 1
    67    33    61 1
@<TRIPOS>SUBSTRUCTURE
     1 6X3         1 TEMP              0 ****  ****    0 ROOT
