@<TRIPOS>MOLECULE
molecule
   71    70     1     0     0
SMALL
bcc


@<TRIPOS>ATOM
      1 C18          0.0000     0.0000     0.0000 c          1 6X4       0.646100
      2 C19          1.5070     0.0000     0.0000 c3         1 6X4       0.076100
      3 C2           2.0160     0.0000     1.4440 c3         1 6X4      -0.104100
      4 O6          -0.6060    -0.9540    -0.4400 o          1 6X4      -0.595100
      5 O7           1.9830    -1.1670    -0.6720 oh         1 6X4      -0.574800
      6 N6          -0.6750     1.0580     0.4930 ns         1 6X4      -0.567900
      7 C16         -2.1390     1.0580     0.4920 c3         1 6X4       0.040700
      8 C15         -2.6420     2.4780     0.4910 c          1 6X4       0.655100
      9 O5          -1.8530     3.4000     0.4930 o          1 6X4      -0.610100
     10 C17         -2.6510     0.3370     1.7400 c3         1 6X4      -0.104100
     11 N5          -3.9670     2.7250     0.4910 ns         1 6X4      -0.551900
     12 C14         -4.4550     4.1060     0.4900 c3         1 6X4       0.001700
     13 C20         -4.5050     4.6220    -0.9250 c          1 6X4       0.884600
     14 O2          -4.9250     5.8730    -1.1690 o          1 6X4      -0.816300
     15 C11         -5.8580     4.1510     1.0990 c3         1 6X4      -0.060400
     16 C10         -5.7880     3.7470     2.5730 c3         1 6X4      -0.155400
     17 C9          -7.1700     3.7910     3.1730 c          1 6X4       0.659100
     18 O4          -8.1180     4.1140     2.4890 o          1 6X4      -0.585100
     19 O8          -4.1680     3.9070    -1.8390 o          1 6X4      -0.816300
     20 N4          -7.3530     3.4720     4.4690 ns         1 6X4      -0.590900
     21 C4          -8.6960     3.5150     5.0520 c3         1 6X4       0.059700
     22 C3          -9.0020     4.9190     5.5050 c          1 6X4       0.644100
     23 O3          -8.1800     5.7980     5.3550 o          1 6X4      -0.540100
     24 C5          -8.7620     2.5680     6.2510 c3         1 6X4      -0.091400
     25 C6          -8.5740     1.1260     5.7730 c3         1 6X4      -0.073400
     26 C7          -8.6410     0.1780     6.9720 c3         1 6X4      -0.114400
     27 C8          -8.4530    -1.2630     6.4940 c3         1 6X4       0.092800
     28 N2          -8.5160    -2.1730     7.6450 nz         1 6X4      -0.810600
     29 N1         -10.1910     5.1990     6.0760 ns         1 6X4      -0.596900
     30 C1         -10.4880     6.5640     6.5150 c3         1 6X4       0.050700
     31 C13         -9.9270     6.7810     7.9220 c3         1 6X4      -0.121100
     32 C12        -11.9810     6.7730     6.5320 c          1 6X4       0.470100
     33 O1         -12.7230     5.8690     6.2090 o          1 6X4      -0.410100
     34 N3         -12.4910     7.9620     6.9080 nz         1 6X4      -0.680400
     35 H32          1.8680     0.8840    -0.5110 h1         1 6X4       0.051700
     36 H4           1.8990     0.9900     1.8680 hc         1 6X4       0.044700
     37 H3           3.0630    -0.2780     1.4580 hc         1 6X4       0.044700
     38 H5           1.4450    -0.7120     2.0280 hc         1 6X4       0.044700
     39 H14          2.5640    -0.9130    -1.3700 ho         1 6X4       0.406000
     40 H35         -0.1750     1.8560     0.8330 hn         1 6X4       0.333500
     41 H28         -2.4990     0.5480    -0.3930 h1         1 6X4       0.102700
     42 H30         -3.5900    -0.1520     1.5150 hc         1 6X4       0.033033
     43 H29         -2.8000     1.0550     2.5370 hc         1 6X4       0.033033
     44 H31         -1.9240    -0.4040     2.0520 hc         1 6X4       0.033033
     45 H34         -4.6170     1.9650     0.4540 hn         1 6X4       0.294500
     46 H27         -3.7870     4.7260     1.0760 h1         1 6X4       0.074700
     47 H18         -6.5050     3.4650     0.5670 hc         1 6X4       0.074700
     48 H17         -6.2540     5.1560     1.0200 hc         1 6X4       0.074700
     49 H15         -5.1410     4.4330     3.1060 hc         1 6X4       0.060700
     50 H16         -5.3920     2.7420     2.6540 hc         1 6X4       0.060700
     51 H33         -6.5670     3.2340     5.0410 hn         1 6X4       0.319500
     52 H6          -9.4220     3.2080     4.3090 h1         1 6X4       0.107700
     53 H7          -7.9770     2.8200     6.9540 hc         1 6X4       0.050700
     54 H8          -9.7260     2.6650     6.7360 hc         1 6X4       0.050700
     55 H9          -9.3580     0.8740     5.0690 hc         1 6X4       0.073200
     56 H10         -7.6100     1.0290     5.2890 hc         1 6X4       0.073200
     57 H11         -7.8570     0.4300     7.6760 hc         1 6X4       0.062200
     58 H12         -9.6050     0.2750     7.4560 hc         1 6X4       0.062200
     59 H13         -9.2370    -1.5160     5.7910 hx         1 6X4       0.119200
     60 H23         -7.4880    -1.3600     6.0110 hx         1 6X4       0.119200
     61 HAO1        -7.7950    -1.9380     8.2970 hn         1 6X4       0.458800
     62 H19         -9.4090    -2.0870     8.0890 hn         1 6X4       0.458800
     63 H20         -8.3890    -3.1160     7.3320 hn         1 6X4       0.458800
     64 H1         -10.8810     4.4810     6.1710 hn         1 6X4       0.331500
     65 H2         -10.0330     7.2710     5.8320 h1         1 6X4       0.132700
     66 H25         -9.6000     7.8080     8.0260 hc         1 6X4       0.065367
     67 H26        -10.6970     6.5710     8.6550 hc         1 6X4       0.065367
     68 H24         -9.0860     6.1170     8.0820 hc         1 6X4       0.065367
     69 H22        -13.3300     8.1420     6.3930 hn         1 6X4       0.482133
     70 H36        -11.8240     8.6850     6.7230 hn         1 6X4       0.482133
     71 H331       -12.6980     7.9420     7.8870 hn         1 6X4       0.482133
@<TRIPOS>BOND
     1     4     1 2   
     2    16    15 1   
     3    16    17 1   
     4    15    12 1   
     5     3     2 1   
     6     1     6 1   
     7     1     2 1   
     8     6     7 1   
     9    28    27 1   
    10    25    24 1   
    11    25    26 1   
    12    17    20 1   
    13    17    18 2   
    14    27    26 1   
    15    24    21 1   
    16     2     5 1   
    17    20    21 1   
    18     7     8 1   
    19     7    10 1   
    20    11    12 1   
    21    11     8 1   
    22    12    13 1   
    23     8     9 2   
    24    21    22 1   
    25    13    14 1   
    26    13    19 1   
    27    31    30 1   
    28    22    23 2   
    29    22    29 1   
    30    30    29 1   
    31    30    32 1   
    32    33    32 2   
    33    32    34 1   
    34     2    35 1   
    35     3    36 1   
    36     3    37 1   
    37     3    38 1   
    38     5    39 1   
    39     6    40 1   
    40     7    41 1   
    41    10    42 1   
    42    10    43 1   
    43    10    44 1   
    44    11    45 1   
    45    12    46 1   
    46    15    47 1   
    47    15    48 1   
    48    16    49 1   
    49    16    50 1   
    50    20    51 1   
    51    21    52 1   
    52    24    53 1   
    53    24    54 1   
    54    25    55 1   
    55    25    56 1   
    56    26    57 1   
    57    26    58 1   
    58    27    59 1   
    59    27    60 1   
    60    28    61 1   
    61    28    62 1   
    62    28    63 1   
    63    29    64 1   
    64    30    65 1   
    65    31    66 1   
    66    31    67 1   
    67    31    68 1   
    68    34    69 1   
    69    34    70 1   
    70    71    34 1   
@<TRIPOS>SUBSTRUCTURE
     1 6X4         1 TEMP              0 ****  ****    0 ROOT
