@<TRIPOS>MOLECULE
6X5
   70    74     1     0     0
SMALL
bcc


@<TRIPOS>ATOM
      1 C01          0.0000     0.0000     0.0000 c3         1 6X5       0.000900
      2 C02          1.5310     0.0000     0.0000 c3         1 6X5       0.213400
      3 O03          2.0060     0.0000     1.3470 os         1 6X5      -0.415600
      4 C04          3.4310     0.0010     1.4610 c3         1 6X5       0.264700
      5 C05          3.8200     0.0000     2.9170 ca         1 6X5      -0.055300
      6 C06          2.8400    -0.0050     3.8930 ca         1 6X5      -0.103000
      7 C07          3.1920    -0.0050     5.2310 ca         1 6X5      -0.067000
      8 C08          4.5240     0.0000     5.5950 ca         1 6X5      -0.130000
      9 C09          5.5100     0.0060     4.6180 ca         1 6X5      -0.056400
     10 C10          5.1530     0.0000     3.2740 ca         1 6X5      -0.150300
     11 C11          6.2200     0.0000     2.2110 c3         1 6X5       0.258700
     12 O12          6.5570     1.3480     1.8740 os         1 6X5      -0.294900
     13 C13          7.5110     1.5250     0.9210 ca         1 6X5       0.100100
     14 C14          8.1050     0.4250     0.3210 ca         1 6X5      -0.136000
     15 C15          9.0750     0.6060    -0.6460 ca         1 6X5      -0.134500
     16 C16          9.4540     1.8880    -1.0170 ca         1 6X5       0.116100
     17 C17          8.8600     2.9890    -0.4170 ca         1 6X5      -0.134500
     18 C18          7.8870     2.8070     0.5470 ca         1 6X5      -0.136000
     19 O19         10.4080     2.0660    -1.9690 os         1 6X5      -0.307900
     20 C20         10.7500     3.4130    -2.3010 c3         1 6X5       0.207400
     21 C21         11.8320     3.4130    -3.3820 c3         1 6X5      -0.063700
     22 C22         12.2560     4.8620    -3.7180 c3         1 6X5      -0.020400
     23 C23         12.4430     4.8200    -5.2560 c3         1 6X5       0.144800
     24 N24         11.3510     3.9200    -5.7070 n7         1 6X5      -0.586200
     25 C25         11.2740     2.8420    -4.6980 c3         1 6X5       0.144800
     26 N26          6.8590     0.0120     4.9830 ns         1 6X5      -0.078100
     27 C27          7.2350     0.5420     6.1640 c          1 6X5       0.630700
     28 O28          6.3950     0.9690     6.9340 o          1 6X5      -0.622100
     29 C29          8.6540     0.6050     6.5200 cc         1 6X5      -0.355900
     30 C30          9.1780     1.2290     7.6270 cd         1 6X5      -0.024000
     31 C31         10.5730     1.0530     7.5920 cd         1 6X5      -0.004100
     32 C32         10.8850     0.3220     6.4610 cc         1 6X5      -0.249300
     33 N33          9.6910     0.0430     5.8050 na         1 6X5       0.446900
     34 C34          9.5560    -0.7190     4.5610 c3         1 6X5      -0.040400
     35 C35         12.2560     0.0850     6.3240 cc         1 6X5      -0.094000
     36 C36         13.0250     0.5890     7.2810 cd         1 6X5       0.023900
     37 S37         12.0500     1.4320     8.4730 ss         1 6X5      -0.258800
     38 H1          -0.3610     0.8840     0.5110 hc         1 6X5       0.008700
     39 H2          -0.3610     0.0000    -1.0210 hc         1 6X5       0.008700
     40 H3          -0.3610    -0.8850     0.5110 hc         1 6X5       0.008700
     41 H4           1.8920     0.8850    -0.5110 h1         1 6X5      -0.012300
     42 H5           1.8920    -0.8850    -0.5110 h1         1 6X5      -0.012300
     43 H6           3.8310     0.8850     0.9810 h1         1 6X5       0.002700
     44 H7           3.8320    -0.8840     0.9800 h1         1 6X5       0.002700
     45 H8           1.7940    -0.0100     3.6090 ha         1 6X5       0.126000
     46 H9           2.4220    -0.0090     5.9930 ha         1 6X5       0.105000
     47 H10          4.7990     0.0030     6.6430 ha         1 6X5       0.162000
     48 H11          5.8520    -0.5110     1.3300 h1         1 6X5       0.000200
     49 H12          7.1000    -0.5100     2.5830 h1         1 6X5       0.000200
     50 H13          7.8090    -0.5760     0.6110 ha         1 6X5       0.117500
     51 H14          9.5390    -0.2530    -1.1150 ha         1 6X5       0.118500
     52 H15          9.1540     3.9900    -0.7080 ha         1 6X5       0.118500
     53 H16          7.4230     3.6660     1.0160 ha         1 6X5       0.117500
     54 H17          9.8710     3.9290    -2.6700 h1         1 6X5       0.007700
     55 H18         11.1210     3.9190    -1.4180 h1         1 6X5       0.007700
     56 H19         12.6920     2.8370    -3.0600 hc         1 6X5       0.037700
     57 H20         13.1890     5.1100    -3.2270 hc         1 6X5       0.023200
     58 H21         11.4740     5.5610    -3.4480 hc         1 6X5       0.023200
     59 H22         12.3220     5.8090    -5.6810 h1         1 6X5       0.011200
     60 H23         13.4090     4.4020    -5.5100 h1         1 6X5       0.011200
     61 H24         11.5870     3.5290    -6.5970 hn         1 6X5       0.252800
     62 H26         10.2430     2.5390    -4.5610 h1         1 6X5       0.016700
     63 H27         11.8740     1.9970    -5.0170 h1         1 6X5       0.016700
     64 H28          7.5400    -0.4180     4.3890 hn         1 6X5       0.188500
     65 H29          8.6120     1.6600     8.4440 ha         1 6X5       0.146000
     66 H30         10.5250    -1.1040     4.2670 h1         1 6X5       0.030367
     67 H31          8.8720    -1.5440     4.7150 h1         1 6X5       0.030367
     68 H32          9.1730    -0.0720     3.7810 h1         1 6X5       0.030367
     69 H33         12.6650    -0.4740     5.4910 ha         1 6X5       0.112000
     70 H34         14.1040     0.4940     7.3210 h4         1 6X5       0.148000
@<TRIPOS>BOND
     1     1     2 1   
     2     1    38 1   
     3     1    39 1   
     4     1    40 1   
     5     2     3 1   
     6     2    41 1   
     7     2    42 1   
     8     3     4 1   
     9     4     5 1   
    10     4    43 1   
    11     4    44 1   
    12     5     6 ar  
    13     5    10 ar  
    14     6     7 ar  
    15     6    45 1   
    16     7     8 ar  
    17     7    46 1   
    18     8     9 ar  
    19     8    47 1   
    20     9    10 ar  
    21     9    26 1   
    22    10    11 1   
    23    11    12 1   
    24    11    48 1   
    25    11    49 1   
    26    12    13 1   
    27    13    14 ar  
    28    13    18 ar  
    29    14    15 ar  
    30    14    50 1   
    31    15    16 ar  
    32    15    51 1   
    33    16    17 ar  
    34    16    19 1   
    35    17    18 ar  
    36    17    52 1   
    37    18    53 1   
    38    19    20 1   
    39    20    21 1   
    40    20    54 1   
    41    20    55 1   
    42    21    22 1   
    43    21    25 1   
    44    21    56 1   
    45    22    23 1   
    46    22    57 1   
    47    22    58 1   
    48    23    24 1   
    49    23    59 1   
    50    23    60 1   
    51    24    25 1   
    52    24    61 1   
    53    25    62 1   
    54    25    63 1   
    55    26    27 1   
    56    26    64 1   
    57    27    28 2   
    58    27    29 1   
    59    29    30 2   
    60    29    33 1   
    61    30    31 1   
    62    30    65 1   
    63    31    32 2   
    64    31    37 1   
    65    32    33 1   
    66    32    35 1   
    67    33    34 1   
    68    34    66 1   
    69    34    67 1   
    70    34    68 1   
    71    35    36 2   
    72    35    69 1   
    73    36    37 1   
    74    36    70 1   
@<TRIPOS>SUBSTRUCTURE
     1 6X5         1 TEMP              0 ****  ****    0 ROOT
