@<TRIPOS>MOLECULE
molecule
   70    74     1     0     0
SMALL
bcc


@<TRIPOS>ATOM
      1 C01          0.0000     0.0000     0.0000 c3         1 6X5      -0.091100
      2 C02          1.5310     0.0000     0.0000 c3         1 6X5       0.137400
      3 O03          2.0060     0.0000     1.3470 os         1 6X5      -0.431600
      4 C04          3.4310     0.0010     1.4610 c3         1 6X5       0.182700
      5 C05          3.8200     0.0000     2.9170 ca         1 6X5      -0.044300
      6 C06          2.8400    -0.0050     3.8930 ca         1 6X5      -0.126000
      7 C07          3.1920    -0.0050     5.2310 ca         1 6X5      -0.102000
      8 C08          4.5240     0.0000     5.5950 ca         1 6X5      -0.143000
      9 C09          5.5100     0.0060     4.6180 ca         1 6X5       0.080600
     10 C10          5.1530     0.0000     3.2740 ca         1 6X5      -0.136300
     11 C11          6.2200     0.0000     2.2110 c3         1 6X5       0.192700
     12 O12          6.5570     1.3480     1.8740 os         1 6X5      -0.318900
     13 C13          7.5110     1.5250     0.9210 ca         1 6X5       0.098100
     14 C14          8.1050     0.4250     0.3210 ca         1 6X5      -0.155000
     15 C15          9.0750     0.6060    -0.6460 ca         1 6X5      -0.153500
     16 C16          9.4540     1.8880    -1.0170 ca         1 6X5       0.109100
     17 C17          8.8600     2.9890    -0.4170 ca         1 6X5      -0.153500
     18 C18          7.8870     2.8070     0.5470 ca         1 6X5      -0.155000
     19 O19         10.4080     2.0660    -1.9690 os         1 6X5      -0.334900
     20 C20         10.7500     3.4130    -2.3010 c3         1 6X5       0.145400
     21 C21         11.8320     3.4130    -3.3820 c3         1 6X5      -0.080700
     22 C22         12.2560     4.8620    -3.7180 c3         1 6X5      -0.078400
     23 C23         12.4430     4.8200    -5.2560 c3         1 6X5       0.140800
     24 N24         11.3510     3.9200    -5.7070 n7         1 6X5      -0.799200
     25 C25         11.2740     2.8420    -4.6980 c3         1 6X5       0.147800
     26 N26          6.8590     0.0120     4.9830 ns         1 6X5      -0.483100
     27 C27          7.2350     0.5420     6.1640 c          1 6X5       0.706700
     28 O28          6.3950     0.9690     6.9340 o          1 6X5      -0.583100
     29 C29          8.6540     0.6050     6.5200 cc         1 6X5      -0.153900
     30 C30          9.1780     1.2290     7.6270 cd         1 6X5      -0.076000
     31 C31         10.5730     1.0530     7.5920 cd         1 6X5      -0.052100
     32 C32         10.8850     0.3220     6.4610 cc         1 6X5      -0.056300
     33 N33          9.6910     0.0430     5.8050 na         1 6X5      -0.053100
     34 C34          9.5560    -0.7190     4.5610 c3         1 6X5       0.023600
     35 C35         12.2560     0.0850     6.3240 cc         1 6X5      -0.145000
     36 C36         13.0250     0.5890     7.2810 cd         1 6X5      -0.051100
     37 S37         12.0500     1.4320     8.4730 ss         1 6X5      -0.132800
     38 H1          -0.3610     0.8840     0.5110 hc         1 6X5       0.044367
     39 H2          -0.3610     0.0000    -1.0210 hc         1 6X5       0.044367
     40 H3          -0.3610    -0.8850     0.5110 hc         1 6X5       0.044367
     41 H4           1.8920     0.8850    -0.5110 h1         1 6X5       0.022700
     42 H5           1.8920    -0.8850    -0.5110 h1         1 6X5       0.022700
     43 H6           3.8310     0.8850     0.9810 h1         1 6X5       0.038200
     44 H7           3.8320    -0.8840     0.9800 h1         1 6X5       0.038200
     45 H8           1.7940    -0.0100     3.6090 ha         1 6X5       0.155000
     46 H9           2.4220    -0.0090     5.9930 ha         1 6X5       0.137000
     47 H10          4.7990     0.0030     6.6430 ha         1 6X5       0.179000
     48 H11          5.8520    -0.5110     1.3300 h1         1 6X5       0.030200
     49 H12          7.1000    -0.5100     2.5830 h1         1 6X5       0.030200
     50 H13          7.8090    -0.5760     0.6110 ha         1 6X5       0.141500
     51 H14          9.5390    -0.2530    -1.1150 ha         1 6X5       0.142500
     52 H15          9.1540     3.9900    -0.7080 ha         1 6X5       0.142500
     53 H16          7.4230     3.6660     1.0160 ha         1 6X5       0.141500
     54 H17          9.8710     3.9290    -2.6700 h1         1 6X5       0.041200
     55 H18         11.1210     3.9190    -1.4180 h1         1 6X5       0.041200
     56 H19         12.6920     2.8370    -3.0600 hc         1 6X5       0.065700
     57 H20         13.1890     5.1100    -3.2270 hc         1 6X5       0.054200
     58 H21         11.4740     5.5610    -3.4480 hc         1 6X5       0.054200
     59 H22         12.3220     5.8090    -5.6810 h1         1 6X5       0.041700
     60 H23         13.4090     4.4020    -5.5100 h1         1 6X5       0.041700
     61 H24         11.5870     3.5290    -6.5970 hn         1 6X5       0.348800
     62 H26         10.2430     2.5390    -4.5610 h1         1 6X5       0.047200
     63 H27         11.8740     1.9970    -5.0170 h1         1 6X5       0.047200
     64 H28          7.5400    -0.4180     4.3890 hn         1 6X5       0.327500
     65 H29          8.6120     1.6600     8.4440 ha         1 6X5       0.174000
     66 H30         10.5250    -1.1040     4.2670 h1         1 6X5       0.056700
     67 H31          8.8720    -1.5440     4.7150 h1         1 6X5       0.056700
     68 H32          9.1730    -0.0720     3.7810 h1         1 6X5       0.056700
     69 H33         12.6650    -0.4740     5.4910 ha         1 6X5       0.142000
     70 H34         14.1040     0.4940     7.3210 h4         1 6X5       0.174000
@<TRIPOS>BOND
     1     6     7 ar  
     2     6     5 ar  
     3     7     8 ar  
     4     4     5 1   
     5     4     3 1   
     6     5    10 ar  
     7     8     9 ar  
     8    10     9 ar  
     9    10    11 1   
    10     3     2 1   
    11     9    26 1   
    12    28    27 2   
    13     2     1 1   
    14    11    12 1   
    15    26    27 1   
    16    27    29 1   
    17    34    33 1   
    18    14    15 ar  
    19    14    13 ar  
    20    12    13 1   
    21    29    33 1   
    22    29    30 2   
    23    33    32 1   
    24    15    16 ar  
    25    13    18 ar  
    26    32    35 1   
    27    32    31 2   
    28    30    31 1   
    29    16    19 1   
    30    16    17 ar  
    31    18    17 ar  
    32    35    36 2   
    33    31    37 1   
    34    19    20 1   
    35    36    37 1   
    36    20    21 1   
    37    22    23 1   
    38    22    21 1   
    39    23    24 1   
    40    21    25 1   
    41    25    24 1   
    42     1    38 1   
    43     1    39 1   
    44     1    40 1   
    45     2    41 1   
    46     2    42 1   
    47     4    43 1   
    48     4    44 1   
    49     6    45 1   
    50     7    46 1   
    51     8    47 1   
    52    11    48 1   
    53    11    49 1   
    54    14    50 1   
    55    15    51 1   
    56    17    52 1   
    57    18    53 1   
    58    20    54 1   
    59    20    55 1   
    60    21    56 1   
    61    22    57 1   
    62    22    58 1   
    63    23    59 1   
    64    23    60 1   
    65    24    61 1   
    66    25    62 1   
    67    25    63 1   
    68    26    64 1   
    69    30    65 1   
    70    34    66 1   
    71    34    67 1   
    72    34    68 1   
    73    35    69 1   
    74    36    70 1   
@<TRIPOS>SUBSTRUCTURE
     1 6X5         1 TEMP              0 ****  ****    0 ROOT
