@<TRIPOS>MOLECULE
molecule
   22    22     1     0     0
SMALL
bcc


@<TRIPOS>ATOM
      1 C01          0.0000     0.0000     0.0000 c3         1 6X6       0.131700
      2 O02          1.4290     0.0000     0.0000 os         1 6X6      -0.324900
      3 C03          2.0460     0.0000     1.2120 ca         1 6X6       0.081100
      4 C04          3.4350    -0.0010     1.2850 ca         1 6X6       0.105100
      5 O05          4.1780    -0.0010     0.1490 os         1 6X6      -0.311900
      6 C06          4.5340     1.2730    -0.3940 c3         1 6X6       0.158700
      7 C07          4.0640    -0.0010     2.5370 ca         1 6X6      -0.088600
      8 C08          3.2870     0.0000     3.7000 ca         1 6X6      -0.118000
      9 C09          1.9130     0.0000     3.6110 ca         1 6X6      -0.139000
     10 C10          1.2910     0.0060     2.3730 ca         1 6X6      -0.236000
     11 C11          5.5350    -0.0020     2.6280 c          1 6X6       0.882200
     12 O12          6.2060    -0.0020     1.6160 o          1 6X6      -0.828800
     13 H1          -0.3610    -0.8830     0.5130 h1         1 6X6       0.027033
     14 H2          -0.3610    -0.0020    -1.0210 h1         1 6X6       0.027033
     15 H3          -0.3610     0.8860     0.5090 h1         1 6X6       0.027033
     16 H4           5.4880     1.1950    -0.9020 h1         1 6X6       0.022033
     17 H5           3.7750     1.5910    -1.0980 h1         1 6X6       0.022033
     18 H6           4.6100     1.9980     0.4070 h1         1 6X6       0.022033
     19 H7           3.7670    -0.0020     4.6710 ha         1 6X6       0.157000
     20 H8           1.3150     0.0030     4.5140 ha         1 6X6       0.105000
     21 H9           0.2100     0.0060     2.3130 ha         1 6X6       0.109000
     22 O1           6.1360    -0.0020     3.8350 o          1 6X6      -0.828800
@<TRIPOS>BOND
     1    12    11 1
     2    11     7 1
     3     8     7 ar
     4     8     9 ar
     5     7     4 ar
     6     9    10 ar
     7     4     5 1
     8     4     3 ar
     9     5     6 1
    10    10     3 ar
    11     3     2 1
    12     2     1 1
    13     1    13 1
    14     1    14 1
    15     1    15 1
    16     6    16 1
    17     6    17 1
    18     6    18 1
    19     8    19 1
    20     9    20 1
    21    10    21 1
    22    11    22 1
@<TRIPOS>SUBSTRUCTURE
     1 6X6         1 TEMP              0 ****  ****    0 ROOT
