@<TRIPOS>MOLECULE
molecule
   19    19     1     0     0
SMALL
bcc


@<TRIPOS>ATOM
      1 C10          0.0000     0.0000     0.0000 ca         1 6X7      -0.179000
      2 O12          2.0350    -0.0020     3.6030 oh         1 6X7      -0.493100
      3 C01          2.1290     0.0020    -1.3050 c3         1 6X7      -0.041800
      4 C02          1.3760     0.0000     0.0000 ca         1 6X7      -0.046300
      5 C03          2.0750     0.0000     1.2110 ca         1 6X7      -0.084600
      6 C04          3.5460     0.0020     1.2160 c          1 6X7       0.892200
      7 O05          4.1530     1.0560     1.2190 o          1 6X7      -0.831300
      8 C07          1.3660    -0.0010     2.4230 ca         1 6X7       0.129100
      9 C08         -0.0180    -0.0020     2.4100 ca         1 6X7      -0.223000
     10 C09         -0.7010    -0.0020     1.2020 ca         1 6X7       0.076100
     11 O11         -2.0580     0.0030     1.1930 oh         1 6X7      -0.534100
     12 O1           4.2210    -1.1640     1.2170 o          1 6X7      -0.831300
     13 H1          -0.5400    -0.0000    -0.9390 ha         1 6X7       0.118000
     14 H2           1.8130     0.7740     4.0910 ho         1 6X7       0.399000
     15 H3           1.4250    -0.0030    -2.1290 hc         1 6X7       0.044033
     16 H4           2.7570    -0.8790    -1.3620 hc         1 6X7       0.044033
     17 H5           2.7470     0.8900    -1.3640 hc         1 6X7       0.044033
     18 H6          -0.5690    -0.0030     3.3430 ha         1 6X7       0.120000
     19 H7          -2.3690     0.8930     1.1920 ho         1 6X7       0.397000
@<TRIPOS>BOND
     1     7     6 1
     2     3     4 1
     3     6     5 1
     4     4     5 ar
     5     4     1 ar
     6     5     8 ar
     7     1    10 ar
     8     8     2 1
     9     8     9 ar
    10    10     9 ar
    11    10    11 1
    12     6    12 1
    13     1    13 1
    14     2    14 1
    15     3    15 1
    16     3    16 1
    17     3    17 1
    18     9    18 1
    19    11    19 1
@<TRIPOS>SUBSTRUCTURE
     1 6X7         1 TEMP              0 ****  ****    0 ROOT
