@<TRIPOS>MOLECULE
molecule
   13    13     1     0     0
SMALL
bcc


@<TRIPOS>ATOM
      1 CG           0.0000     0.0000     0.0000 ca         1 6X8      -0.154000
      2 CD           1.3860     0.0020     2.3960 ca         1 6X8      -0.086000
      3 CE           0.0040    -0.0040     2.4020 ca         1 6X8       0.027900
      4 CH           1.3820     0.0000     0.0000 ca         1 6X8      -0.101000
      5 CC           2.0730     0.0000     1.1970 ca         1 6X8      -0.139000
      6 CF          -0.6930     0.0010     1.2020 ca         1 6X8       0.133100
      7 OF          -2.0520     0.0070     1.2040 oh         1 6X8      -0.514100
      8 IE          -1.0370    -0.0210     4.2190 i          1 6X8      -0.155900
      9 H1          -0.5420     0.0020    -0.9380 ha         1 6X8       0.145000
     10 H2           1.9310     0.0000     3.3320 ha         1 6X8       0.144000
     11 H3           1.9230    -0.0010    -0.9380 ha         1 6X8       0.137000
     12 H4           3.1570     0.0020     1.1950 ha         1 6X8       0.137000
     13 H5          -2.3630     0.8960     1.1610 ho         1 6X8       0.426000
@<TRIPOS>BOND
     1     4     1 ar  
     2     4     5 ar  
     3     1     6 ar  
     4     7     6 1   
     5     5     2 ar  
     6     6     3 ar  
     7     3     2 ar  
     8     3     8 1   
     9     1     9 1   
    10     2    10 1   
    11     4    11 1   
    12     5    12 1   
    13     7    13 1   
@<TRIPOS>SUBSTRUCTURE
     1 6X8         1 TEMP              0 ****  ****    0 ROOT
