@<TRIPOS>MOLECULE
molecule
   28    29     1     0     0
SMALL
bcc


@<TRIPOS>ATOM
      1 C1           0.0000     0.0000     0.0000 c          1 6X9       0.617500
      2 C3           0.0190     0.0010     2.3460 cc         1 6X9       0.199300
      3 C5           2.0810     0.0000     1.1740 cd         1 6X9       0.156800
      4 C6           1.4100     0.0000     0.0000 cc         1 6X9      -0.271400
      5 N2          -0.6690     0.0010     1.1710 n          1 6X9       0.097300
      6 C7          -0.9240     0.0010     3.3710 cd         1 6X9      -0.288300
      7 C8          -2.1980     0.0020     2.7620 cd         1 6X9       0.411600
      8 C11          2.1660    -0.0010    -1.3040 c3         1 6X9      -0.235200
      9 C12          2.3130    -1.4390    -1.8070 c3         1 6X9      -0.153100
     10 C13          3.5880    -0.0010     1.1820 c3         1 6X9      -0.046900
     11 C14         -3.5200     0.0030     3.4850 c3         1 6X9      -0.117400
     12 C15         -0.6530     0.0020     4.7770 ch         1 6X9       0.275800
     13 N4           1.3910     0.0010     2.3490 na         1 6X9      -0.595400
     14 N16         -0.4180    -0.0010     5.8890 n1         1 6X9      -0.385800
     15 N9          -2.0380     0.0010     1.4670 nc         1 6X9      -0.467800
     16 O10         -0.6120     0.0050    -1.0530 o          1 6X9      -0.576500
     17 H2           2.8780    -0.8170    -1.3080 hc         1 6X9       0.187200
     18 H3           1.4700    -0.1250    -2.1250 hc         1 6X9       0.187200
     19 H4           1.7390    -1.5630    -2.7170 hc         1 6X9       0.054367
     20 H5           3.3570    -1.6460    -2.0070 hc         1 6X9       0.054367
     21 H6           1.9470    -2.1240    -1.0520 hc         1 6X9       0.054367
     22 H7           3.9440    -0.2670     2.1710 hc         1 6X9       0.061033
     23 H8           3.9510     0.9860     0.9210 hc         1 6X9       0.061033
     24 H9           3.9530    -0.7230     0.4610 hc         1 6X9       0.061033
     25 H10         -3.5650    -0.8470     4.1550 hc         1 6X9       0.061700
     26 H11         -4.3260    -0.0630     2.7640 hc         1 6X9       0.061700
     27 H12         -3.6190     0.9190     4.0550 hc         1 6X9       0.061700
     28 H1           1.8890     0.0000     3.2180 hn         1 6X9       0.474800
@<TRIPOS>BOND
     1    16     1 2   
     2     9     8 1   
     3    15     5 1   
     4    15     7 2   
     5     1     5 1   
     6     1     4 1   
     7    11     7 1   
     8     5     2 1   
     9     7     6 1   
    10     8     4 1   
    11     4     3 2   
    12     2     6 2   
    13     2    13 1   
    14     6    12 1   
    15     3    13 1   
    16     3    10 1   
    17    12    14 3   
    18     8    17 1   
    19     8    18 1   
    20     9    19 1   
    21     9    20 1   
    22     9    21 1   
    23    10    22 1   
    24    10    23 1   
    25    10    24 1   
    26    11    25 1   
    27    11    26 1   
    28    11    27 1   
    29    13    28 1   
@<TRIPOS>SUBSTRUCTURE
     1 6X9         1 TEMP              0 ****  ****    0 ROOT
