@<TRIPOS>MOLECULE
molecule
   25    24     1     0     0
SMALL
bcc


@<TRIPOS>ATOM
      1 C2           0.0000     0.0000     0.0000 c3         1 6XA       0.090800
      2 C3           1.5300     0.0000     0.0000 c3         1 6XA      -0.110400
      3 C4           2.0400     0.0000     1.4430 c3         1 6XA      -0.079400
      4 C5           3.5700     0.0000     1.4430 c3         1 6XA      -0.062400
      5 C6           4.0790    -0.0000     2.8860 c3         1 6XA      -0.150400
      6 C7           5.5870     0.0000     2.8860 c          1 6XA       0.670100
      7 N1          -0.4900    -0.0000    -1.3850 nz         1 6XA      -0.810600
      8 N8           6.2600    -0.0010     4.0540 ns         1 6XA      -0.466400
      9 O10          6.1930    -0.0000     1.8350 o          1 6XA      -0.573100
     10 O9           7.6770     0.0000     4.0530 oh         1 6XA      -0.353100
     11 H1          -0.3610    -0.8840     0.5110 hx         1 6XA       0.111700
     12 H2          -0.3610     0.8850     0.5100 hx         1 6XA       0.111700
     13 H3           1.8920     0.8850    -0.5110 hc         1 6XA       0.069700
     14 H4           1.8920    -0.8850    -0.5110 hc         1 6XA       0.069700
     15 H5           1.6780     0.8840     1.9530 hc         1 6XA       0.054700
     16 H6           1.6780    -0.8840     1.9530 hc         1 6XA       0.054700
     17 H7           3.9310     0.8840     0.9330 hc         1 6XA       0.069700
     18 H8           3.9310    -0.8840     0.9330 hc         1 6XA       0.069700
     19 H9           3.7180     0.8840     3.3960 hc         1 6XA       0.064200
     20 H10          3.7180    -0.8850     3.3960 hc         1 6XA       0.064200
     21 H11         -0.1560    -0.8180    -1.8570 hn         1 6XA       0.457467
     22 H12         -1.4900    -0.0000    -1.3860 hn         1 6XA       0.457467
     23 H14          5.7600    -0.0340     4.9200 hn         1 6XA       0.322500
     24 H15          7.9910     0.0840     4.9380 ho         1 6XA       0.407000
     25 H13         -0.1570     0.8170    -1.8570 hn         1 6XA       0.457467
@<TRIPOS>BOND
     1     9     6 2   
     2    10     8 1   
     3     6     8 1   
     4     6     5 1   
     5     5     4 1   
     6     4     3 1   
     7     2     3 1   
     8     2     1 1   
     9     1     7 1   
    10     1    11 1   
    11     1    12 1   
    12     2    13 1   
    13     2    14 1   
    14     3    15 1   
    15     3    16 1   
    16     4    17 1   
    17     4    18 1   
    18     5    19 1   
    19     5    20 1   
    20     7    21 1   
    21     7    22 1   
    22     8    23 1   
    23    10    24 1   
    24    25     7 1   
@<TRIPOS>SUBSTRUCTURE
     1 6XA         1 TEMP              0 ****  ****    0 ROOT
