@<TRIPOS>MOLECULE
6XA
   25    24     1     0     0
SMALL
bcc


@<TRIPOS>ATOM
      1 C2           0.0000     0.0000     0.0000 c3         1 6XA      -0.054200
      2 C3           1.5300     0.0000     0.0000 c3         1 6XA      -0.035400
      3 C4           2.0400     0.0000     1.4430 c3         1 6XA      -0.020400
      4 C5           3.5700     0.0000     1.4430 c3         1 6XA      -0.009400
      5 C6           4.0790    -0.0000     2.8860 c3         1 6XA      -0.091400
      6 C7           5.5870     0.0000     2.8860 c          1 6XA       0.566100
      7 N1          -0.4900    -0.0000    -1.3850 nz         1 6XA       0.086400
      8 N8           6.2600    -0.0010     4.0540 ns         1 6XA      -0.043400
      9 O10          6.1930    -0.0000     1.8350 o          1 6XA      -0.619100
     10 O9           7.6770     0.0000     4.0530 oh         1 6XA      -0.431100
     11 H1          -0.3610    -0.8840     0.5110 hx         1 6XA       0.084700
     12 H2          -0.3610     0.8850     0.5100 hx         1 6XA       0.084700
     13 H3           1.8920     0.8850    -0.5110 hc         1 6XA       0.037700
     14 H4           1.8920    -0.8850    -0.5110 hc         1 6XA       0.037700
     15 H5           1.6780     0.8840     1.9530 hc         1 6XA       0.023700
     16 H6           1.6780    -0.8840     1.9530 hc         1 6XA       0.023700
     17 H7           3.9310     0.8840     0.9330 hc         1 6XA       0.037700
     18 H8           3.9310    -0.8840     0.9330 hc         1 6XA       0.037700
     19 H9           3.7180     0.8840     3.3960 hc         1 6XA       0.028700
     20 H10          3.7180    -0.8850     3.3960 hc         1 6XA       0.028700
     21 H11         -0.1560    -0.8180    -1.8570 hn         1 6XA       0.223800
     22 H12         -1.4900    -0.0000    -1.3860 hn         1 6XA       0.223800
     23 H14          5.7600    -0.0340     4.9200 hn         1 6XA       0.155500
     24 H15          7.9910     0.0840     4.9380 ho         1 6XA       0.400000
     25 H13         -0.1570     0.8170    -1.8570 hn         1 6XA       0.223800
@<TRIPOS>BOND
     1     1     2 1   
     2     1     7 1   
     3     1    11 1   
     4     1    12 1   
     5     2     3 1   
     6     2    13 1   
     7     2    14 1   
     8     3     4 1   
     9     3    15 1   
    10     3    16 1   
    11     4     5 1   
    12     4    17 1   
    13     4    18 1   
    14     5     6 1   
    15     5    19 1   
    16     5    20 1   
    17     6     8 1   
    18     6     9 2   
    19     7    21 1   
    20     7    22 1   
    21     7    25 1   
    22     8    10 1   
    23     8    23 1   
    24    10    24 1   
@<TRIPOS>SUBSTRUCTURE
     1 6XA         1 TEMP              0 ****  ****    0 ROOT
