@<TRIPOS>MOLECULE
molecule
   35    37     1     0     0
SMALL
bcc


@<TRIPOS>ATOM
      1 CAM          0.0000     0.0000     0.0000 c3         1 6XB      -0.036100
      2 CAN          1.5330     0.0000     0.0000 c3         1 6XB       0.109000
      3 NAO          2.0170     0.0000     1.3880 n          1 6XB      -0.497800
      4 CAQ          2.7150    -1.0450     1.8770 c          1 6XB       0.664100
      5 OAR          3.1060    -1.0290     3.0240 o          1 6XB      -0.605100
      6 CAS          3.0090    -2.2310     0.9960 c3         1 6XB      -0.171100
      7 CAP          1.7190     1.1700     2.2340 c3         1 6XB       0.196300
      8 CAL          0.2730     1.5350     2.0000 cc         1 6XB      -0.364600
      9 CAK         -0.4890     1.0140     1.0040 cd         1 6XB      -0.042600
     10 NAJ         -1.7130     1.5640     1.0920 na         1 6XB      -0.034600
     11 NAI         -1.7130     2.4510     2.1790 nd         1 6XB      -0.560800
     12 CAH         -0.5170     2.4290     2.7270 cc         1 6XB       0.621200
     13 NAG         -0.1090     3.1730     3.8410 nu         1 6XB      -0.766300
     14 CAF         -1.0360     3.9470     4.5430 ca         1 6XB       0.169600
     15 CAE         -2.3730     3.5690     4.5790 ca         1 6XB      -0.165000
     16 CAD         -3.2860     4.3320     5.2790 ca         1 6XB      -0.103000
     17 CAC         -2.8720     5.4720     5.9430 ca         1 6XB      -0.160000
     18 CAB         -1.5430     5.8520     5.9080 ca         1 6XB      -0.103000
     19 CAA         -0.6240     5.0930     5.2120 ca         1 6XB      -0.165000
     20 H1          -0.3620     0.2640    -0.9860 hc         1 6XB       0.061200
     21 H2          -0.3620    -0.9840     0.2740 hc         1 6XB       0.061200
     22 H3           1.8940    -0.8860    -0.5080 h1         1 6XB       0.056700
     23 H4           1.8940     0.8860    -0.5080 h1         1 6XB       0.056700
     24 H5           2.0790    -2.7060     0.7070 hc         1 6XB       0.060700
     25 H6           3.5370    -1.9010     0.1090 hc         1 6XB       0.060700
     26 H7           3.6230    -2.9400     1.5380 hc         1 6XB       0.060700
     27 H8           1.8390     0.8850     3.2720 h1         1 6XB       0.068700
     28 H9           2.3400     1.9970     1.9090 h1         1 6XB       0.068700
     29 H10         -2.4880     1.3750     0.4870 hn         1 6XB       0.330700
     30 H11          0.8470     3.1470     4.1370 hn         1 6XB       0.459800
     31 H12         -2.6980     2.6750     4.0600 ha         1 6XB       0.143500
     32 H13         -4.3290     4.0370     5.3080 ha         1 6XB       0.128500
     33 H14         -3.5910     6.0690     6.4910 ha         1 6XB       0.127000
     34 H15         -1.2220     6.7450     6.4290 ha         1 6XB       0.128500
     35 H16          0.4170     5.3910     5.1850 ha         1 6XB       0.143500
@<TRIPOS>BOND
     1    16    17 ar  
     2    16    15 ar  
     3    17    18 ar  
     4    15    14 ar  
     5     6     4 1   
     6    18    19 ar  
     7    14    19 ar  
     8    14    13 1   
     9    13    12 1   
    10     7     3 1   
    11     7     8 1   
    12     4     3 1   
    13     4     5 2   
    14    12     8 1   
    15    12    11 2   
    16     3     2 1   
    17     8     9 2   
    18    11    10 1   
    19     2     1 1   
    20     9    10 1   
    21     9     1 1   
    22     1    20 1   
    23     1    21 1   
    24     2    22 1   
    25     2    23 1   
    26     6    24 1   
    27     6    25 1   
    28     6    26 1   
    29     7    27 1   
    30     7    28 1   
    31    10    29 1   
    32    13    30 1   
    33    15    31 1   
    34    16    32 1   
    35    17    33 1   
    36    18    34 1   
    37    19    35 1   
@<TRIPOS>SUBSTRUCTURE
     1 6XB         1 TEMP              0 ****  ****    0 ROOT
