@<TRIPOS>MOLECULE
6XB
   35    37     1     0     0
SMALL
bcc


@<TRIPOS>ATOM
      1 CAM          0.0000     0.0000     0.0000 c3         1 6XB       0.053900
      2 CAN          1.5330     0.0000     0.0000 c3         1 6XB       0.050000
      3 NAO          2.0170     0.0000     1.3880 n          1 6XB      -0.165800
      4 CAQ          2.7150    -1.0450     1.8770 c          1 6XB       0.591100
      5 OAR          3.1060    -1.0290     3.0240 o          1 6XB      -0.644100
      6 CAS          3.0090    -2.2310     0.9960 c3         1 6XB      -0.073100
      7 CAP          1.7190     1.1700     2.2340 c3         1 6XB       0.171300
      8 CAL          0.2730     1.5350     2.0000 cc         1 6XB      -0.388600
      9 CAK         -0.4890     1.0140     1.0040 cd         1 6XB      -0.230600
     10 NAJ         -1.7130     1.5640     1.0920 na         1 6XB       0.475400
     11 NAI         -1.7130     2.4510     2.1790 nd         1 6XB      -0.722800
     12 CAH         -0.5170     2.4290     2.7270 cc         1 6XB       0.507200
     13 NAG         -0.1090     3.1730     3.8410 nu         1 6XB      -0.296300
     14 CAF         -1.0360     3.9470     4.5430 ca         1 6XB       0.012600
     15 CAE         -2.3730     3.5690     4.5790 ca         1 6XB      -0.140500
     16 CAD         -3.2860     4.3320     5.2790 ca         1 6XB      -0.075500
     17 CAC         -2.8720     5.4720     5.9430 ca         1 6XB      -0.133000
     18 CAB         -1.5430     5.8520     5.9080 ca         1 6XB      -0.075500
     19 CAA         -0.6240     5.0930     5.2120 ca         1 6XB      -0.140500
     20 H1          -0.3620     0.2640    -0.9860 hc         1 6XB       0.023700
     21 H2          -0.3620    -0.9840     0.2740 hc         1 6XB       0.023700
     22 H3           1.8940    -0.8860    -0.5080 h1         1 6XB       0.028700
     23 H4           1.8940     0.8860    -0.5080 h1         1 6XB       0.028700
     24 H5           2.0790    -2.7060     0.7070 hc         1 6XB       0.024367
     25 H6           3.5370    -1.9010     0.1090 hc         1 6XB       0.024367
     26 H7           3.6230    -2.9400     1.5380 hc         1 6XB       0.024367
     27 H8           1.8390     0.8850     3.2720 h1         1 6XB       0.035700
     28 H9           2.3400     1.9970     1.9090 h1         1 6XB       0.035700
     29 H10         -2.4880     1.3750     0.4870 hn         1 6XB       0.144700
     30 H11          0.8470     3.1470     4.1370 hn         1 6XB       0.287800
     31 H12         -2.6980     2.6750     4.0600 ha         1 6XB       0.122000
     32 H13         -4.3290     4.0370     5.3080 ha         1 6XB       0.099000
     33 H14         -3.5910     6.0690     6.4910 ha         1 6XB       0.101000
     34 H15         -1.2220     6.7450     6.4290 ha         1 6XB       0.099000
     35 H16          0.4170     5.3910     5.1850 ha         1 6XB       0.122000
@<TRIPOS>BOND
     1     1     2 1   
     2     1     9 1   
     3     1    20 1   
     4     1    21 1   
     5     2     3 1   
     6     2    22 1   
     7     2    23 1   
     8     3     4 1   
     9     3     7 1   
    10     4     5 2   
    11     4     6 1   
    12     6    24 1   
    13     6    25 1   
    14     6    26 1   
    15     7     8 1   
    16     7    27 1   
    17     7    28 1   
    18     8     9 2   
    19     8    12 1   
    20     9    10 1   
    21    10    11 1   
    22    10    29 1   
    23    11    12 2   
    24    12    13 1   
    25    13    14 1   
    26    13    30 1   
    27    14    15 ar  
    28    14    19 ar  
    29    15    16 ar  
    30    15    31 1   
    31    16    17 ar  
    32    16    32 1   
    33    17    18 ar  
    34    17    33 1   
    35    18    19 ar  
    36    18    34 1   
    37    19    35 1   
@<TRIPOS>SUBSTRUCTURE
     1 6XB         1 TEMP              0 ****  ****    0 ROOT
