@<TRIPOS>MOLECULE
molecule
   37    39     1     0     0
SMALL
bcc


@<TRIPOS>ATOM
      1 C01          0.0000     0.0000     0.0000 c3         1 6XC      -0.034900
      2 C05          1.5070     0.0000     0.0000 cc         1 6XC      -0.167400
      3 C06          2.1830     0.0000     1.1750 cd         1 6XC      -0.059200
      4 C08          3.6450     0.0000     1.1360 ca         1 6XC      -0.055800
      5 C09          4.4220    -0.0010     2.3030 ca         1 6XC      -0.266300
      6 C11          5.7830    -0.0010     2.1870 ca         1 6XC       0.438200
      7 N13          6.3770     0.0020     1.0050 nb         1 6XC      -0.742000
      8 C14          5.6990     0.0030    -0.1290 ca         1 6XC       0.680200
      9 N15          6.3760     0.0040    -1.3440 nu         1 6XC      -0.918900
     10 C17          7.8410     0.0050    -1.3660 c3         1 6XC       0.248500
     11 C19          8.3340     0.6170    -2.6800 c3         1 6XC      -0.093400
     12 C22          9.8620     0.5590    -2.7230 c3         1 6XC       0.161300
     13 N25         10.3040    -0.8370    -2.6170 n7         1 6XC      -0.821200
     14 C27          9.8830    -1.4320    -1.3420 c3         1 6XC       0.161300
     15 C30          8.3540    -1.4330    -1.2570 c3         1 6XC      -0.093400
     16 C33          4.2980     0.0020    -0.1080 ca         1 6XC      -0.102700
     17 N34          3.5560     0.0030    -1.2680 ns         1 6XC      -0.419100
     18 C36          2.2120    -0.0040    -1.2260 c          1 6XC       0.694700
     19 O37          1.5840    -0.0080    -2.2700 o          1 6XC      -0.647500
     20 H011        -0.3610     0.7210    -0.7240 hc         1 6XC       0.052700
     21 H012        -0.3610    -0.9870    -0.2620 hc         1 6XC       0.052700
     22 H013        -0.3610     0.2660     0.9860 hc         1 6XC       0.052700
     23 H06          1.6660    -0.2340     2.0970 ha         1 6XC       0.148000
     24 H09          3.9510    -0.0030     3.2790 ha         1 6XC       0.143000
     25 H11          6.3900    -0.0010     3.0840 h4         1 6XC       0.024100
     26 H15          5.8630     0.0240    -2.2030 hn         1 6XC       0.439800
     27 H17          8.2200     0.5860    -0.5340 h1         1 6XC       0.078700
     28 H191         8.0110     1.6490    -2.7400 hc         1 6XC       0.055200
     29 H192         7.9280     0.0560    -3.5130 hc         1 6XC       0.055200
     30 H301         7.9490    -2.0230    -2.0710 hc         1 6XC       0.055200
     31 H302         8.0460    -1.8560    -0.3090 hc         1 6XC       0.055200
     32 H221        10.2670     1.1280    -1.8950 h1         1 6XC       0.034700
     33 H222        10.2110     0.9760    -3.6600 h1         1 6XC       0.034700
     34 H25         11.3010    -0.8780    -2.6920 hn         1 6XC       0.355800
     35 H271        10.2880    -0.8500    -0.5220 h1         1 6XC       0.034700
     36 H272        10.2480    -2.4510    -1.2820 h1         1 6XC       0.034700
     37 H34          4.0230    -0.0000    -2.1540 hn         1 6XC       0.333500
@<TRIPOS>BOND
     1     1     2 1   
     2     2     3 2   
     3     2    18 1   
     4     3     4 1   
     5     4     5 ar  
     6     4    16 ar  
     7     5     6 ar  
     8     6     7 ar  
     9     7     8 ar  
    10     8     9 1   
    11     8    16 ar  
    12     9    10 1   
    13    10    11 1   
    14    10    15 1   
    15    11    12 1   
    16    12    13 1   
    17    13    14 1   
    18    14    15 1   
    19    16    17 1   
    20    17    18 1   
    21    18    19 2   
    22     1    20 1   
    23     1    21 1   
    24     1    22 1   
    25     3    23 1   
    26     5    24 1   
    27     6    25 1   
    28     9    26 1   
    29    10    27 1   
    30    11    28 1   
    31    11    29 1   
    32    15    30 1   
    33    15    31 1   
    34    12    32 1   
    35    12    33 1   
    36    13    34 1   
    37    14    35 1   
    38    14    36 1   
    39    17    37 1   
@<TRIPOS>SUBSTRUCTURE
     1 6XC         1 TEMP              0 ****  ****    0 ROOT
