@<TRIPOS>MOLECULE
molecule
   48    51     1     0     0
SMALL
bcc


@<TRIPOS>ATOM
      1 C4           0.0000     0.0000     0.0000 c3         1 6XD      -0.071067
      2 C5           1.5300     0.0000     0.0000 c3         1 6XD      -0.061367
      3 C6           2.0400     1.2480    -0.7220 c3         1 6XD      -0.071067
      4 C7           1.5300     2.4980    -0.0010 c3         1 6XD      -0.061367
      5 C8           2.0400     2.4990     1.4410 c3         1 6XD      -0.083400
      6 C10          0.0000     2.4980    -0.0010 c3         1 6XD      -0.071067
      7 N02          2.0180     1.2500     3.5440 ns         1 6XD      -0.595900
      8 C03          1.6920     0.2400     4.3740 c          1 6XD       0.785100
      9 N04          2.1410     0.2400     5.6450 ns         1 6XD      -0.608900
     10 C05          1.7870    -0.8580     6.5480 c3         1 6XD       0.133000
     11 C06          2.4190    -0.6160     7.9190 c3         1 6XD      -0.125400
     12 C07          2.0510    -1.7620     8.8620 c3         1 6XD       0.046300
     13 N08          2.6560    -1.5300    10.1760 na         1 6XD      -0.190900
     14 C09          2.1000    -0.8600    11.2070 cc         1 6XD       0.394400
     15 N10          2.9380    -0.8610    12.2080 nd         1 6XD      -0.696000
     16 C11          4.0480    -1.5260    11.8530 cd         1 6XD       0.311200
     17 C12          3.8900    -1.9570    10.5880 cc         1 6XD      -0.279600
     18 O13          0.9930    -0.6730     3.9770 o          1 6XD      -0.665100
     19 C1           1.5290     1.2490     2.1630 c3         1 6XD       0.153400
     20 C2          -0.0010     1.2490     2.1630 c3         1 6XD      -0.083400
     21 C3          -0.5100     1.2490     0.7210 c3         1 6XD      -0.061367
     22 C9           2.0400     0.0000     1.4420 c3         1 6XD      -0.083400
     23 H1          -0.3610    -0.8840     0.5110 hc         1 6XD       0.042367
     24 H2          -0.3610    -0.0000    -1.0210 hc         1 6XD       0.042367
     25 H3           1.8910    -0.8850    -0.5100 hc         1 6XD       0.050033
     26 H4           3.1230     1.2480    -0.7220 hc         1 6XD       0.042367
     27 H5           1.6790     1.2480    -1.7430 hc         1 6XD       0.042367
     28 H6           1.8920     3.3820    -0.5120 hc         1 6XD       0.050033
     29 H7           1.6790     3.3830     1.9510 hc         1 6XD       0.055533
     30 H8           3.1230     2.4980     1.4410 hc         1 6XD       0.055533
     31 H9          -0.3610     2.4980    -1.0230 hc         1 6XD       0.042367
     32 H10         -0.3610     3.3830     0.5090 hc         1 6XD       0.042367
     33 H11          2.6130     1.9880     3.8640 hn         1 6XD       0.305500
     34 H12          2.7160     0.9910     5.9720 hn         1 6XD       0.307500
     35 H13          0.7100    -0.9080     6.6510 h1         1 6XD       0.053700
     36 H14          2.1540    -1.7930     6.1410 h1         1 6XD       0.053700
     37 H15          2.0520     0.3190     8.3260 hc         1 6XD       0.059200
     38 H16          3.4970    -0.5660     7.8160 hc         1 6XD       0.059200
     39 H17          2.4180    -2.6970     8.4550 h1         1 6XD       0.066200
     40 H18          0.9730    -1.8130     8.9650 h1         1 6XD       0.066200
     41 H19          1.1210    -0.3980    11.2050 h5         1 6XD       0.063100
     42 H20          4.9180    -1.6920    12.4770 h4         1 6XD       0.041100
     43 H21          4.6040    -2.5260    10.0050 h4         1 6XD       0.173000
     44 H22         -0.3620     0.3650     2.6740 hc         1 6XD       0.055533
     45 H23         -0.3620     2.1340     2.6730 hc         1 6XD       0.055533
     46 H24         -1.5940     1.2490     0.7200 hc         1 6XD       0.050033
     47 H25          1.6800    -0.8850     1.9530 hc         1 6XD       0.055533
     48 H26          3.1240     0.0010     1.4420 hc         1 6XD       0.055533
@<TRIPOS>BOND
     1     3     4 1   
     2     3     2 1   
     3     6     4 1   
     4     6    21 1   
     5     4     5 1   
     6     1     2 1   
     7     1    21 1   
     8     2    22 1   
     9    21    20 1   
    10     5    19 1   
    11    22    19 1   
    12    20    19 1   
    13    19     7 1   
    14     7     8 1   
    15    18     8 2   
    16     8     9 1   
    17     9    10 1   
    18    10    11 1   
    19    17    16 2   
    20    17    13 1   
    21    16    15 1   
    22    11    12 1   
    23    12    13 1   
    24    13    14 1   
    25    15    14 2   
    26     1    23 1   
    27     1    24 1   
    28     2    25 1   
    29     3    26 1   
    30     3    27 1   
    31     4    28 1   
    32     5    29 1   
    33     5    30 1   
    34     6    31 1   
    35     6    32 1   
    36     7    33 1   
    37     9    34 1   
    38    10    35 1   
    39    10    36 1   
    40    11    37 1   
    41    11    38 1   
    42    12    39 1   
    43    12    40 1   
    44    14    41 1   
    45    16    42 1   
    46    17    43 1   
    47    20    44 1   
    48    20    45 1   
    49    21    46 1   
    50    22    47 1   
    51    22    48 1   
@<TRIPOS>SUBSTRUCTURE
     1 6XD         1 TEMP              0 ****  ****    0 ROOT
