@<TRIPOS>MOLECULE
molecule
   40    44     1     0     0
SMALL
bcc


@<TRIPOS>ATOM
      1 C1           0.0000     0.0000     0.0000 ca         1 6XE      -0.157300
      2 C2           1.4170     0.0000     0.0000 ca         1 6XE       0.421600
      3 N3           2.0830     0.0000     1.1580 nb         1 6XE      -0.678000
      4 C4           1.4510    -0.0010     2.3080 ca         1 6XE       0.433200
      5 C5           0.0600    -0.0010     2.3790 ca         1 6XE      -0.257300
      6 C6          -0.6820    -0.0000     1.2320 ca         1 6XE      -0.077000
      7 C7           0.0010    -0.0120    -2.3900 ca         1 6XE      -0.091300
      8 C8           1.3950     0.0000    -2.3930 ca         1 6XE      -0.105000
      9 C9           2.1000     0.0000    -1.2300 ca         1 6XE      -0.160300
     10 C10         -0.6940    -0.0060    -1.2200 ca         1 6XE      -0.100000
     11 C11         -4.0950    -2.9730    -2.9830 cc         1 6XE       0.355500
     12 C12         -3.8470    -4.2050    -3.6280 cc         1 6XE       0.323900
     13 N13         -2.7570    -4.3880    -4.3300 nd         1 6XE      -0.569000
     14 N14         -3.2190    -1.9920    -3.0850 nd         1 6XE      -0.449800
     15 C15         -7.6580    -2.4230    -0.7280 ca         1 6XE       0.160900
     16 C16         -7.4200    -3.6340    -1.3600 ca         1 6XE      -0.171000
     17 C17         -6.2650    -3.8160    -2.0920 ca         1 6XE      -0.067000
     18 C18         -5.3380    -2.7810    -2.1960 ca         1 6XE      -0.177500
     19 C19         -5.5820    -1.5650    -1.5590 ca         1 6XE      -0.067000
     20 C20         -6.7390    -1.3920    -0.8290 ca         1 6XE      -0.171000
     21 N22         -2.0590    -2.1990    -3.8370 na         1 6XE      -0.068500
     22 C23         -1.8500    -3.4120    -4.4520 cd         1 6XE       0.290500
     23 N24         -0.6900    -3.3220    -5.0830 nc         1 6XE      -0.027000
     24 N25         -0.1880    -2.1520    -4.8930 nc         1 6XE      -0.343700
     25 C26         -0.9820    -1.4320    -4.1420 cd         1 6XE       0.360800
     26 C27         -0.7450    -0.0120    -3.6990 c3         1 6XE      -0.024400
     27 H6          -1.7640    -0.0010     1.2690 ha         1 6XE       0.137000
     28 H10         -1.7780    -0.0160    -1.2300 ha         1 6XE       0.136000
     29 H9           3.1830     0.0100    -1.2510 ha         1 6XE       0.154000
     30 H4           2.0260    -0.0010     3.2260 h4         1 6XE       0.024100
     31 H5          -0.4330    -0.0010     3.3440 ha         1 6XE       0.137000
     32 H8           1.9260    -0.0050    -3.3380 ha         1 6XE       0.145000
     33 H271        -0.1600     0.5070    -4.4490 hc         1 6XE       0.077700
     34 H272        -1.6970     0.4910    -3.5730 hc         1 6XE       0.077700
     35 H12         -4.5690    -5.0080    -3.5420 h4         1 6XE       0.049100
     36 H16         -8.1420    -4.4380    -1.2780 ha         1 6XE       0.155500
     37 H20         -6.9300    -0.4470    -0.3340 ha         1 6XE       0.155500
     38 H17         -6.0800    -4.7630    -2.5850 ha         1 6XE       0.149500
     39 H19         -4.8640    -0.7580    -1.6380 ha         1 6XE       0.149500
     40 F21         -8.7940    -2.2470    -0.0170 f          1 6XE      -0.130900
@<TRIPOS>BOND
     1     1     2 ar
     2     1     6 ar
     3     1    10 ar
     4     2     3 ar
     5     2     9 ar
     6     3     4 ar
     7     4     5 ar
     8     5     6 ar
     9     7     8 ar
    10     7    10 ar
    11     7    26 1
    12     8     9 ar
    13    11    12 1
    14    11    14 2
    15    11    18 1
    16    12    13 2
    17    13    22 1
    18    14    21 1
    19    15    16 ar
    20    15    20 ar
    21    15    40 1
    22    16    17 ar
    23    17    18 ar
    24    18    19 ar
    25    19    20 ar
    26    21    22 1
    27    21    25 1
    28    22    23 2
    29    23    24 1
    30    24    25 2
    31    25    26 1
    32     6    27 1
    33    10    28 1
    34     9    29 1
    35     4    30 1
    36     5    31 1
    37     8    32 1
    38    26    33 1
    39    26    34 1
    40    12    35 1
    41    16    36 1
    42    20    37 1
    43    17    38 1
    44    19    39 1
@<TRIPOS>SUBSTRUCTURE
     1 6XE         1 TEMP              0 ****  ****    0 ROOT
