@<TRIPOS>MOLECULE
6XE
   40    38     1     0     0
SMALL
bcc


@<TRIPOS>ATOM
      1 C1          0.2190   -1.3060   -0.6900 c2        1 6XE     -0.087000
      2 C2          2.4990    2.4320    2.4850 c1        1 6XE      0.442000
      3 N3          2.5880    1.2600    2.3560 n2        1 6XE     -0.334000
      4 C4          2.4180   -2.0660    1.9720 c1        1 6XE     -0.209000
      5 C5          1.4400   -1.7510    1.3540 c1        1 6XE     -0.143000
      6 C6          0.2790   -1.3900    0.6530 c2        1 6XE     -0.085000
      7 C7         -1.0580   -0.8700   -2.7300 c2        1 6XE     -0.136000
      8 C8          2.5110    4.9680    2.8840 c1        1 6XE      0.192000
      9 C9          2.5050    3.7290    2.6890 c1        1 6XE     -0.662000
     10 C10        -0.9920   -0.9380   -1.3930 c2        1 6XE     -0.145000
     11 C11        -4.1350   -4.2190   -2.9760 c2        1 6XE     -0.036000
     12 C12        -4.5590   -5.2690   -6.5130 c1        1 6XE      0.207000
     13 N13        -4.0040   -4.2980   -6.1180 n2        1 6XE     -0.283000
     14 N14        -3.9990   -2.9640   -3.3180 n2        1 6XE     -0.064000
     15 C15        -6.7090    1.9540   -1.0030 c1        1 6XE      0.005000
     16 C16        -6.3260    0.8580   -1.2870 c1        1 6XE     -0.118000
     17 C17        -5.0190   -5.8530   -1.3960 c2        1 6XE     -0.154000
     18 C18        -4.8570   -4.5760   -1.7520 c2        1 6XE     -0.169000
     19 C19        -5.8650   -1.5140   -0.9060 c1        1 6XE      0.223000
     20 C20        -5.8790   -0.4120   -1.6350 c2        1 6XE     -0.338000
     21 N22        -3.3560   -2.5900   -4.4340 na        1 6XE     -0.123000
     22 C23        -3.3420   -3.1540   -5.7650 c2        1 6XE      0.044000
     23 N24        -2.6010   -2.3180   -6.5780 n2        1 6XE     -0.039000
     24 N25        -2.1630   -1.3070   -5.8670 n2        1 6XE     -0.079000
     25 C26        -2.5850   -1.4000   -4.5710 c2        1 6XE     -0.028000
     26 C27        -2.2830   -0.4560   -3.4600 c3        1 6XE     -0.061000
     27 H6         -0.6090   -1.1850    1.2800 ha        1 6XE      0.145000
     28 H10        -1.8730   -0.7110   -0.7670 ha        1 6XE      0.132000
     29 H9          1.1060   -1.5210   -1.3120 ha        1 6XE      0.135000
     30 H4          2.4030    0.3360    2.1080 hn        1 6XE      0.352000
     31 H5          3.2800   -2.3620    2.5170 ha        1 6XE      0.233000
     32 H8         -0.1850   -1.0990   -3.3660 ha        1 6XE      0.141000
     33 H271       -2.1100    0.5680   -3.9020 hc        1 6XE      0.124500
     34 H272       -3.1670   -0.3790   -2.7680 hc        1 6XE      0.124500
     35 H12        -3.7400   -5.0850   -3.5540 h4        1 6XE      0.137000
     36 H16        -4.6350   -6.6980   -1.9830 ha        1 6XE      0.126000
     37 H20        -5.4840   -0.5160   -2.6780 ha        1 6XE      0.213000
     38 H17        -5.5570   -6.1280   -0.4780 ha        1 6XE      0.126000
     39 H19        -5.2590   -3.7480   -1.1360 ha        1 6XE      0.173000
     40 F21        -7.1230    3.1390   -0.6910 f         1 6XE      0.017000
@<TRIPOS>BOND
     1    1    6 1   
     2    1   10 1   
     3    1   29 1   
     4    2    3 1   
     5    2    9 1   
     6    3   30 1   
     7    4    5 1   
     8    4   31 1   
     9    5    6 1   
    10    6   27 1   
    11    7   10 1   
    12    7   26 1   
    13    7   32 1   
    14    8    9 1   
    15   10   28 1   
    16   11   14 1   
    17   11   18 1   
    18   11   35 1   
    19   12   13 1   
    20   13   22 1   
    21   14   21 1   
    22   15   16 1   
    23   15   40 1   
    24   16   20 1   
    25   17   18 1   
    26   17   36 1   
    27   17   38 1   
    28   18   39 1   
    29   19   20 1   
    30   20   37 1   
    31   21   22 1   
    32   21   25 1   
    33   22   23 1   
    34   23   24 1   
    35   24   25 1   
    36   25   26 1   
    37   26   33 1   
    38   26   34 1   
@<TRIPOS>SUBSTRUCTURE
     1 6XE         1 TEMP              0 ****  ****    0 ROOT
