@<TRIPOS>MOLECULE
6XG
   58    61     1     0     0
SMALL
bcc


@<TRIPOS>ATOM
      1 C7           0.0000     0.0000     0.0000 ca         1 6XG      -0.151600
      2 C9           2.0870     0.0000     1.1960 ca         1 6XG      -0.099000
      3 C2          -2.5830     1.6340    -0.6860 c3         1 6XG       0.035700
      4 C10          1.4000     0.0010     2.3950 ca         1 6XG      -0.085000
      5 C1          -3.9510     1.8000    -1.3780 c3         1 6XG      -0.014600
      6 C3          -2.1040     3.0000    -0.1660 c3         1 6XG      -0.014600
      7 N4          -1.6080     1.1080    -1.6490 ns         1 6XG      -0.340900
      8 C5          -0.7460    -0.0260    -1.2770 c          1 6XG       0.659700
      9 O6          -0.6270    -0.9490    -2.0150 o          1 6XG      -0.557100
     10 C8           1.3960     0.0000     0.0000 ca         1 6XG      -0.056000
     11 C11          0.0090     0.0060     2.4050 ca         1 6XG       0.030600
     12 C12         -0.6930     0.0060     1.2100 ca         1 6XG      -0.097000
     13 N13         -0.7120     0.1410     3.6750 nu         1 6XG      -0.444300
     14 C14         -0.8120    -1.0050     4.5900 cc         1 6XG       0.508200
     15 C15         -1.3580    -2.2430     4.2870 cc         1 6XG      -0.324600
     16 C16         -1.2610    -3.0310     5.4010 cd         1 6XG      -0.255600
     17 N17         -0.6690    -2.3040     6.3770 na         1 6XG       0.552400
     18 N18         -0.3900    -1.0400     5.8640 nd         1 6XG      -0.687800
     19 C19         -0.4260    -2.7490     7.7620 c3         1 6XG       0.020300
     20 C20          1.0940    -2.7650     8.0390 cx         1 6XG      -0.131700
     21 C21          1.5920    -3.9110     8.9160 cx         1 6XG      -0.075400
     22 C22          1.5030    -2.4970     9.4860 cx         1 6XG      -0.075400
     23 C23         -1.7900    -4.4540     5.3450 c3         1 6XG       0.074900
     24 C24         -2.3980    -4.9330     4.0630 c3         1 6XG       0.053000
     25 N25         -2.4950    -4.2170     3.0250 n          1 6XG      -0.154800
     26 C26         -2.0110    -2.8330     2.9910 c3         1 6XG       0.104300
     27 C27         -3.7520    -3.9690     2.2960 c          1 6XG       0.588100
     28 O28         -4.7650    -4.4570     2.6780 o          1 6XG      -0.573100
     29 C29         -3.7350    -3.1560     0.9920 c3         1 6XG      -0.062100
     30 H1           3.1700    -0.0040     1.1920 ha         1 6XG       0.108000
     31 H2          -2.6710     0.9160     0.1200 h1         1 6XG       0.032700
     32 H3           1.9450     0.0000     3.3320 ha         1 6XG       0.117000
     33 H4          -4.2260     0.8710    -1.8630 hc         1 6XG       0.009200
     34 H5          -4.7010     2.0570    -0.6390 hc         1 6XG       0.009200
     35 H6          -3.8890     2.5890    -2.1180 hc         1 6XG       0.009200
     36 H7          -2.2270     3.7450    -0.9420 hc         1 6XG       0.009200
     37 H8          -2.6890     3.2810     0.7010 hc         1 6XG       0.009200
     38 H9          -1.0580     2.9350     0.1090 hc         1 6XG       0.009200
     39 H10         -1.5470     1.5020    -2.5660 hn         1 6XG       0.192500
     40 H11          1.9380     0.0520    -0.9370 ha         1 6XG       0.111000
     41 H12         -1.7750     0.0620     1.2140 ha         1 6XG       0.119000
     42 H13         -1.1150     1.0210     3.9310 hn         1 6XG       0.299800
     43 H14         -0.9110    -2.0680     8.4500 h1         1 6XG       0.036700
     44 H15         -0.8280    -3.7460     7.8960 h1         1 6XG       0.036700
     45 H16          1.7900    -2.4180     7.2840 hc         1 6XG       0.081700
     46 H17          0.8320    -4.6020     9.2600 hc         1 6XG       0.046950
     47 H18          2.5930    -4.2660     8.6990 hc         1 6XG       0.046950
     48 H19          0.6880    -2.3220    10.1770 hc         1 6XG       0.046950
     49 H20          2.4490    -1.9850     9.6170 hc         1 6XG       0.046950
     50 H21         -0.9680    -5.1170     5.5850 hc         1 6XG       0.017700
     51 H22         -2.5410    -4.5540     6.1200 hc         1 6XG       0.017700
     52 H23         -3.4040    -5.2540     4.3050 h1         1 6XG       0.011700
     53 H24         -1.8400    -5.8140     3.7730 h1         1 6XG       0.011700
     54 H25         -2.8510    -2.2000     2.7320 h1         1 6XG       0.024200
     55 H26         -1.2780    -2.7630     2.1960 h1         1 6XG       0.024200
     56 H27         -2.7390    -3.1750     0.5670 hc         1 6XG       0.028367
     57 H28         -4.4360    -3.5880     0.2880 hc         1 6XG       0.028367
     58 H29         -4.0190    -2.1320     1.2020 hc         1 6XG       0.028367
@<TRIPOS>BOND
     1     1     8 1   
     2     1    10 ar  
     3     1    12 ar  
     4     2     4 ar  
     5     2    10 ar  
     6     2    30 1   
     7     3     5 1   
     8     3     6 1   
     9     3     7 1   
    10     3    31 1   
    11     4    11 ar  
    12     4    32 1   
    13     5    33 1   
    14     5    34 1   
    15     5    35 1   
    16     6    36 1   
    17     6    37 1   
    18     6    38 1   
    19     7     8 1   
    20     7    39 1   
    21     8     9 2   
    22    10    40 1   
    23    11    12 ar  
    24    11    13 1   
    25    12    41 1   
    26    13    14 1   
    27    13    42 1   
    28    14    15 1   
    29    14    18 2   
    30    15    16 2   
    31    15    26 1   
    32    16    17 1   
    33    16    23 1   
    34    17    18 1   
    35    17    19 1   
    36    19    20 1   
    37    19    43 1   
    38    19    44 1   
    39    20    21 1   
    40    20    22 1   
    41    20    45 1   
    42    21    22 1   
    43    21    46 1   
    44    21    47 1   
    45    22    48 1   
    46    22    49 1   
    47    23    24 1   
    48    23    50 1   
    49    23    51 1   
    50    24    25 1   
    51    24    52 1   
    52    24    53 1   
    53    25    26 1   
    54    25    27 1   
    55    26    54 1   
    56    26    55 1   
    57    27    28 2   
    58    27    29 1   
    59    29    56 1   
    60    29    57 1   
    61    29    58 1   
@<TRIPOS>SUBSTRUCTURE
     1 6XG         1 TEMP              0 ****  ****    0 ROOT
