@<TRIPOS>MOLECULE
molecule
   58    61     1     0     0
SMALL
bcc


@<TRIPOS>ATOM
      1 C7           0.0000     0.0000     0.0000 ca         1 6XG      -0.137600
      2 C9           2.0870     0.0000     1.1960 ca         1 6XG      -0.125000
      3 C2          -2.5830     1.6340    -0.6860 c3         1 6XG       0.122700
      4 C10          1.4000     0.0010     2.3950 ca         1 6XG      -0.115000
      5 C1          -3.9510     1.8000    -1.3780 c3         1 6XG      -0.109100
      6 C3          -2.1040     3.0000    -0.1660 c3         1 6XG      -0.109100
      7 N4          -1.6080     1.1080    -1.6490 ns         1 6XG      -0.674900
      8 C5          -0.7460    -0.0260    -1.2770 c          1 6XG       0.705700
      9 O6          -0.6270    -0.9490    -2.0150 o          1 6XG      -0.523100
     10 C8           1.3960     0.0000     0.0000 ca         1 6XG      -0.093000
     11 C11          0.0090     0.0060     2.4050 ca         1 6XG       0.167600
     12 C12         -0.6930     0.0060     1.2100 ca         1 6XG      -0.121000
     13 N13         -0.7120     0.1410     3.6750 nu         1 6XG      -0.854300
     14 C14         -0.8120    -1.0050     4.5900 cc         1 6XG       0.607200
     15 C15         -1.3580    -2.2430     4.2870 cc         1 6XG      -0.319600
     16 C16         -1.2610    -3.0310     5.4010 cd         1 6XG      -0.073600
     17 N17         -0.6690    -2.3040     6.3770 na         1 6XG       0.098400
     18 N18         -0.3900    -1.0400     5.8640 nd         1 6XG      -0.536800
     19 C19         -0.4260    -2.7490     7.7620 c3         1 6XG       0.111300
     20 C20          1.0940    -2.7650     8.0390 cx         1 6XG      -0.150700
     21 C21          1.5920    -3.9110     8.9160 cx         1 6XG      -0.136400
     22 C22          1.5030    -2.4970     9.4860 cx         1 6XG      -0.136400
     23 C23         -1.7900    -4.4540     5.3450 c3         1 6XG      -0.023100
     24 C24         -2.3980    -4.9330     4.0630 c3         1 6XG       0.106000
     25 N25         -2.4950    -4.2170     3.0250 n          1 6XG      -0.419800
     26 C26         -2.0110    -2.8330     2.9910 c3         1 6XG       0.126300
     27 C27         -3.7520    -3.9690     2.2960 c          1 6XG       0.630100
     28 O28         -4.7650    -4.4570     2.6780 o          1 6XG      -0.542100
     29 C29         -3.7350    -3.1560     0.9920 c3         1 6XG      -0.154100
     30 H1           3.1700    -0.0040     1.1920 ha         1 6XG       0.139000
     31 H2          -2.6710     0.9160     0.1200 h1         1 6XG       0.052700
     32 H3           1.9450     0.0000     3.3320 ha         1 6XG       0.148000
     33 H4          -4.2260     0.8710    -1.8630 hc         1 6XG       0.040700
     34 H5          -4.7010     2.0570    -0.6390 hc         1 6XG       0.040700
     35 H6          -3.8890     2.5890    -2.1180 hc         1 6XG       0.040700
     36 H7          -2.2270     3.7450    -0.9420 hc         1 6XG       0.040700
     37 H8          -2.6890     3.2810     0.7010 hc         1 6XG       0.040700
     38 H9          -1.0580     2.9350     0.1090 hc         1 6XG       0.040700
     39 H10         -1.5470     1.5020    -2.5660 hn         1 6XG       0.322500
     40 H11          1.9380     0.0520    -0.9370 ha         1 6XG       0.142000
     41 H12         -1.7750     0.0620     1.2140 ha         1 6XG       0.142000
     42 H13         -1.1150     1.0210     3.9310 hn         1 6XG       0.457800
     43 H14         -0.9110    -2.0680     8.4500 h1         1 6XG       0.066200
     44 H15         -0.8280    -3.7460     7.8960 h1         1 6XG       0.066200
     45 H16          1.7900    -2.4180     7.2840 hc         1 6XG       0.108700
     46 H17          0.8320    -4.6020     9.2600 hc         1 6XG       0.076450
     47 H18          2.5930    -4.2660     8.6990 hc         1 6XG       0.076450
     48 H19          0.6880    -2.3220    10.1770 hc         1 6XG       0.076450
     49 H20          2.4490    -1.9850     9.6170 hc         1 6XG       0.076450
     50 H21         -0.9680    -5.1170     5.5850 hc         1 6XG       0.053700
     51 H22         -2.5410    -4.5540     6.1200 hc         1 6XG       0.053700
     52 H23         -3.4040    -5.2540     4.3050 h1         1 6XG       0.038700
     53 H24         -1.8400    -5.8140     3.7730 h1         1 6XG       0.038700
     54 H25         -2.8510    -2.2000     2.7320 h1         1 6XG       0.048700
     55 H26         -1.2780    -2.7630     2.1960 h1         1 6XG       0.048700
     56 H27         -2.7390    -3.1750     0.5670 hc         1 6XG       0.067033
     57 H28         -4.4360    -3.5880     0.2880 hc         1 6XG       0.067033
     58 H29         -4.0190    -2.1320     1.2020 hc         1 6XG       0.067033
@<TRIPOS>BOND
     1     2    10 ar  
     2     2     4 ar  
     3    10     1 ar  
     4     5     3 1   
     5     4    11 ar  
     6     7     3 1   
     7     7     8 1   
     8     3     6 1   
     9     1     8 1   
    10     1    12 ar  
    11     8     9 2   
    12    11    12 ar  
    13    11    13 1   
    14    13    14 1   
    15    14    18 2   
    16    14    15 1   
    17    18    17 1   
    18    15    26 1   
    19    15    16 2   
    20    26    25 1   
    21    17    16 1   
    22    17    19 1   
    23    20    19 1   
    24    20    21 1   
    25    20    22 1   
    26    16    23 1   
    27    29    27 1   
    28    21    22 1   
    29    25    27 1   
    30    25    24 1   
    31    27    28 2   
    32    23    24 1   
    33     2    30 1   
    34     3    31 1   
    35     4    32 1   
    36     5    33 1   
    37     5    34 1   
    38     5    35 1   
    39     6    36 1   
    40     6    37 1   
    41     6    38 1   
    42     7    39 1   
    43    10    40 1   
    44    12    41 1   
    45    13    42 1   
    46    19    43 1   
    47    19    44 1   
    48    20    45 1   
    49    21    46 1   
    50    21    47 1   
    51    22    48 1   
    52    22    49 1   
    53    23    50 1   
    54    23    51 1   
    55    24    52 1   
    56    24    53 1   
    57    26    54 1   
    58    26    55 1   
    59    29    56 1   
    60    29    57 1   
    61    29    58 1   
@<TRIPOS>SUBSTRUCTURE
     1 6XG         1 TEMP              0 ****  ****    0 ROOT
