@<TRIPOS>MOLECULE
6XH
   56    60     1     0     0
SMALL
bcc


@<TRIPOS>ATOM
      1 C7           0.0000     0.0000     0.0000 cc         1 6XH      -0.192600
      2 C9          -2.1090    -0.2360     0.6860 cd         1 6XH       0.503200
      3 C2           1.8410    -2.0710     2.7530 c          1 6XH       0.592100
      4 C6           1.5080     0.0000     0.0000 c3         1 6XH       0.041900
      5 C1           1.0210    -3.1350     3.4370 c3         1 6XH      -0.073100
      6 C12         -0.4130     0.7640    -2.3480 c3         1 6XH      -0.084000
      7 C14         -1.0290    -0.1540    -3.4320 c3         1 6XH      -0.065400
      8 C15         -2.2690     0.6620    -3.8810 c3         1 6XH       0.204400
      9 C17         -0.9900     2.1580    -2.6600 c3         1 6XH       0.200400
     10 C19         -4.5080    -0.2310     1.0290 ca         1 6XH      -0.018400
     11 C20         -4.6820     0.4720    -0.1560 ca         1 6XH      -0.153000
     12 C21         -5.9530     0.7470    -0.6170 ca         1 6XH      -0.081000
     13 C22         -7.0640     0.3180     0.1070 ca         1 6XH       0.013000
     14 C23         -6.8890    -0.3870     1.2950 ca         1 6XH      -0.113000
     15 C24         -5.6160    -0.6650     1.7510 ca         1 6XH       0.043900
     16 C26         -8.4320     0.6130    -0.3890 cc         1 6XH      -0.261300
     17 C27         -8.7570     1.3090    -1.5700 cc         1 6XH       0.404200
     18 C30         -9.6020     0.2560     0.2150 cd         1 6XH      -0.245300
     19 C32         -0.2110    -0.7710     2.4010 c3         1 6XH       0.163300
     20 C5           2.0020     0.0000     1.4520 c3         1 6XH       0.058000
     21 C8          -0.7680    -0.3480     1.0630 cd         1 6XH      -0.392600
     22 F25         -5.4460    -1.3480     2.9040 f          1 6XH      -0.134900
     23 N10         -2.1440     0.1730    -0.5640 nc         1 6XH      -0.707800
     24 N11         -0.8230     0.3260    -1.0120 na         1 6XH       0.516400
     25 N18         -3.2190    -0.5080     1.4940 nu         1 6XH      -0.274300
     26 N28        -10.0600     1.3610    -1.6640 nd         1 6XH      -0.649800
     27 N29        -10.6130     0.7130    -0.5540 na         1 6XH       0.492400
     28 N4           1.2350    -0.9900     2.2240 n          1 6XH      -0.165800
     29 O16         -1.8070     2.0290    -3.8370 os         1 6XH      -0.398600
     30 O3           3.0460    -2.1870     2.6820 o          1 6XH      -0.649100
     31 H1           1.8710    -0.8870    -0.5060 hc         1 6XH       0.029700
     32 H2           1.8710     0.8870    -0.5060 hc         1 6XH       0.029700
     33 H3           0.4430    -2.6880     4.2370 hc         1 6XH       0.025367
     34 H4           1.6790    -3.8910     3.8460 hc         1 6XH       0.025367
     35 H5           0.3500    -3.5910     2.7180 hc         1 6XH       0.025367
     36 H13          0.6670     0.7760    -2.4350 h1         1 6XH       0.054700
     37 H6          -1.3280    -1.1040    -3.0060 hc         1 6XH       0.036700
     38 H7          -0.3400    -0.2920    -4.2560 hc         1 6XH       0.036700
     39 H8          -3.0900     0.5160    -3.1900 h1         1 6XH       0.023200
     40 H9          -2.5570     0.3910    -4.8900 h1         1 6XH       0.023200
     41 H10         -1.5950     2.4990    -1.8280 h1         1 6XH       0.020200
     42 H11         -0.1840     2.8570    -2.8470 h1         1 6XH       0.020200
     43 H12         -3.8190     0.8080    -0.7180 ha         1 6XH       0.181000
     44 H14         -6.0870     1.2960    -1.5420 ha         1 6XH       0.110000
     45 H15         -7.7520    -0.7230     1.8580 ha         1 6XH       0.117000
     46 H16         -8.0510     1.7230    -2.2790 h4         1 6XH       0.008100
     47 H17         -9.7010    -0.3840     1.0830 h4         1 6XH       0.149000
     48 H18        -12.2910    -0.5030    -0.2660 h1         1 6XH       0.021700
     49 H19        -12.6190     1.0490    -1.0480 h1         1 6XH       0.021700
     50 H20        -12.2760     0.9870     0.6870 h1         1 6XH       0.021700
     51 H21         -0.3780     0.0100     3.1330 h1         1 6XH       0.022700
     52 H22         -0.6850    -1.6910     2.7220 h1         1 6XH       0.022700
     53 H23          3.0430    -0.3020     1.4550 h1         1 6XH       0.043700
     54 H24          1.8120     0.9790     1.8740 h1         1 6XH       0.043700
     55 H25         -3.0890    -0.8810     2.4130 hn         1 6XH       0.290800
     56 C31        -12.0430     0.5510    -0.2770 c3         1 6XH       0.023600
@<TRIPOS>BOND
     1     1     4 1   
     2     1    21 2   
     3     1    24 1   
     4     2    21 1   
     5     2    23 2   
     6     2    25 1   
     7     3     5 1   
     8     3    28 1   
     9     3    30 2   
    10     4    20 1   
    11     4    31 1   
    12     4    32 1   
    13     5    33 1   
    14     5    34 1   
    15     5    35 1   
    16     6     7 1   
    17     6     9 1   
    18     6    24 1   
    19     6    36 1   
    20     7     8 1   
    21     7    37 1   
    22     7    38 1   
    23     8    29 1   
    24     8    39 1   
    25     8    40 1   
    26     9    29 1   
    27     9    41 1   
    28     9    42 1   
    29    10    11 ar  
    30    10    15 ar  
    31    10    25 1   
    32    11    12 ar  
    33    11    43 1   
    34    12    13 ar  
    35    12    44 1   
    36    13    14 ar  
    37    13    16 1   
    38    14    15 ar  
    39    14    45 1   
    40    15    22 1   
    41    16    17 1   
    42    16    18 2   
    43    17    26 2   
    44    17    46 1   
    45    18    27 1   
    46    18    47 1   
    47    19    21 1   
    48    19    28 1   
    49    19    51 1   
    50    19    52 1   
    51    20    28 1   
    52    20    53 1   
    53    20    54 1   
    54    23    24 1   
    55    25    55 1   
    56    26    27 1   
    57    27    56 1   
    58    48    56 1   
    59    49    56 1   
    60    50    56 1   
@<TRIPOS>SUBSTRUCTURE
     1 6XH         1 TEMP              0 ****  ****    0 ROOT
