@<TRIPOS>MOLECULE
molecule
   56    60     1     0     0
SMALL
bcc


@<TRIPOS>ATOM
      1 C7           0.0000     0.0000     0.0000 cc         1 6XH      -0.023600
      2 C9          -2.1090    -0.2360     0.6860 cd         1 6XH       0.624200
      3 C2           1.8410    -2.0710     2.7530 c          1 6XH       0.666100
      4 C6           1.5080     0.0000     0.0000 c3         1 6XH      -0.043100
      5 C1           1.0210    -3.1350     3.4370 c3         1 6XH      -0.170100
      6 C12         -0.4130     0.7640    -2.3480 c3         1 6XH       0.045000
      7 C14         -1.0290    -0.1540    -3.4320 c3         1 6XH      -0.125400
      8 C15         -2.2690     0.6620    -3.8810 c3         1 6XH       0.125400
      9 C17         -0.9900     2.1580    -2.6600 c3         1 6XH       0.115400
     10 C19         -4.5080    -0.2310     1.0290 ca         1 6XH       0.132600
     11 C20         -4.6820     0.4720    -0.1560 ca         1 6XH      -0.154000
     12 C21         -5.9530     0.7470    -0.6170 ca         1 6XH      -0.109000
     13 C22         -7.0640     0.3180     0.1070 ca         1 6XH       0.001000
     14 C23         -6.8890    -0.3870     1.2950 ca         1 6XH      -0.142000
     15 C24         -5.6160    -0.6650     1.7510 ca         1 6XH       0.074900
     16 C26         -8.4320     0.6130    -0.3890 cd         1 6XH      -0.259300
     17 C27         -8.7570     1.3090    -1.5700 cd         1 6XH       0.346200
     18 C30         -9.6020     0.2560     0.2150 cc         1 6XH      -0.101300
     19 C32         -0.2110    -0.7710     2.4010 c3         1 6XH       0.192300
     20 C5           2.0020     0.0000     1.4520 c3         1 6XH       0.116000
     21 C8          -0.7680    -0.3480     1.0630 cd         1 6XH      -0.369600
     22 F25         -5.4460    -1.3480     2.9040 f          1 6XH      -0.151900
     23 N10         -2.1440     0.1730    -0.5640 nc         1 6XH      -0.573800
     24 N11         -0.8230     0.3260    -1.0120 na         1 6XH       0.077400
     25 N18         -3.2190    -0.5080     1.4940 nu         1 6XH      -0.753300
     26 N28        -10.0600     1.3610    -1.6640 nc         1 6XH      -0.510800
     27 N29        -10.6130     0.7130    -0.5540 na         1 6XH       0.067400
     28 N4           1.2350    -0.9900     2.2240 n          1 6XH      -0.497800
     29 O16         -1.8070     2.0290    -3.8370 os         1 6XH      -0.410600
     30 O3           3.0460    -2.1870     2.6820 o          1 6XH      -0.611100
     31 H1           1.8710    -0.8870    -0.5060 hc         1 6XH       0.064700
     32 H2           1.8710     0.8870    -0.5060 hc         1 6XH       0.064700
     33 H3           0.4430    -2.6880     4.2370 hc         1 6XH       0.061700
     34 H4           1.6790    -3.8910     3.8460 hc         1 6XH       0.061700
     35 H5           0.3500    -3.5910     2.7180 hc         1 6XH       0.061700
     36 H13          0.6670     0.7760    -2.4350 h1         1 6XH       0.080700
     37 H6          -1.3280    -1.1040    -3.0060 hc         1 6XH       0.070200
     38 H7          -0.3400    -0.2920    -4.2560 hc         1 6XH       0.070200
     39 H8          -3.0900     0.5160    -3.1900 h1         1 6XH       0.062700
     40 H9          -2.5570     0.3910    -4.8900 h1         1 6XH       0.062700
     41 H10         -1.5950     2.4990    -1.8280 h1         1 6XH       0.062700
     42 H11         -0.1840     2.8570    -2.8470 h1         1 6XH       0.062700
     43 H12         -3.8190     0.8080    -0.7180 ha         1 6XH       0.192000
     44 H14         -6.0870     1.2960    -1.5420 ha         1 6XH       0.137000
     45 H15         -7.7520    -0.7230     1.8580 ha         1 6XH       0.140000
     46 H16         -8.0510     1.7230    -2.2790 h4         1 6XH       0.051100
     47 H17         -9.7010    -0.3840     1.0830 h4         1 6XH       0.172000
     48 H18        -12.2910    -0.5030    -0.2660 h1         1 6XH       0.055700
     49 H19        -12.6190     1.0490    -1.0480 h1         1 6XH       0.055700
     50 H20        -12.2760     0.9870     0.6870 h1         1 6XH       0.055700
     51 H21         -0.3780     0.0100     3.1330 h1         1 6XH       0.052200
     52 H22         -0.6850    -1.6910     2.7220 h1         1 6XH       0.052200
     53 H23          3.0430    -0.3020     1.4550 h1         1 6XH       0.073700
     54 H24          1.8120     0.9790     1.8740 h1         1 6XH       0.073700
     55 H25         -3.0890    -0.8810     2.4130 hn         1 6XH       0.463800
     56 C31        -12.0430     0.5510    -0.2770 c3         1 6XH       0.063600
@<TRIPOS>BOND
     1    26    17 2   
     2    26    27 1   
     3    17    16 1   
     4    22    15 1   
     5    27    56 1   
     6    27    18 1   
     7    14    15 ar  
     8    14    13 ar  
     9    16    18 2   
    10    16    13 1   
    11    15    10 ar  
    12    13    12 ar  
    13    10    25 1   
    14    10    11 ar  
    15     5     3 1   
    16    12    11 ar  
    17    25     2 1   
    18    19    28 1   
    19    19    21 1   
    20     3    28 1   
    21     3    30 2   
    22     2    21 1   
    23     2    23 2   
    24    28    20 1   
    25    21     1 2   
    26    23    24 1   
    27    20     4 1   
    28     1    24 1   
    29     1     4 1   
    30    24     6 1   
    31     6     9 1   
    32     6     7 1   
    33     9    29 1   
    34    29     8 1   
    35     7     8 1   
    36     4    31 1   
    37     4    32 1   
    38     5    33 1   
    39     5    34 1   
    40     5    35 1   
    41     6    36 1   
    42     7    37 1   
    43     7    38 1   
    44     8    39 1   
    45     8    40 1   
    46     9    41 1   
    47     9    42 1   
    48    11    43 1   
    49    12    44 1   
    50    14    45 1   
    51    17    46 1   
    52    18    47 1   
    53    56    48 1   
    54    56    49 1   
    55    56    50 1   
    56    19    51 1   
    57    19    52 1   
    58    20    53 1   
    59    20    54 1   
    60    25    55 1   
@<TRIPOS>SUBSTRUCTURE
     1 6XH         1 TEMP              0 ****  ****    0 ROOT
