@<TRIPOS>MOLECULE
molecule
   19    20     1     0     0
SMALL
bcc


@<TRIPOS>ATOM
      1 C11          0.0000     0.0000     0.0000 cc         1 6XI      -0.238500
      2 C12          1.3490     0.0000     0.0000 cd         1 6XI      -0.112800
      3 O01          1.6880     2.0360     3.0630 o          1 6XI      -0.819300
      4 C03          3.6110     0.8780     2.6480 cc         1 6XI      -0.011700
      5 C04          3.1090    -0.0000     1.7170 cd         1 6XI      -0.059200
      6 C05          4.0580    -0.8820     1.2400 cd         1 6XI      -0.162000
      7 C06          5.2810    -0.7320     1.7570 cc         1 6XI      -0.173100
      8 S07          5.3220     0.5470     2.8840 ss         1 6XI      -0.060800
      9 N08          1.7750     0.0000     1.2980 na         1 6XI       0.066800
     10 C09          0.6820    -0.0010     2.1170 cd         1 6XI      -0.112800
     11 C10         -0.4230    -0.0010     1.3450 cc         1 6XI      -0.238500
     12 O13          3.4790     2.6940     4.2050 o          1 6XI      -0.819300
     13 H111        -0.6410     0.0000    -0.8730 ha         1 6XI       0.124500
     14 H121         1.9840     0.0010    -0.8770 h4         1 6XI       0.163500
     15 H051         3.8280    -1.6390     0.5010 ha         1 6XI       0.131000
     16 H061         6.1360    -1.3440     1.4940 h4         1 6XI       0.147000
     17 H091         0.7000    -0.0010     3.2010 h4         1 6XI       0.163500
     18 H101        -1.4490    -0.0010     1.6930 ha         1 6XI       0.124500
     19 C02          2.8720     1.8900     3.3070 c          1 6XI       0.888200
@<TRIPOS>BOND
     1     1     2 2
     2     1    11 1
     3     2     9 1
     4     3    19 1
     5    19     4 1
     6    19    12 1
     7     4     5 2
     8     4     8 1
     9     5     6 1
    10     5     9 1
    11     6     7 2
    12     7     8 1
    13     9    10 1
    14    10    11 2
    15     1    13 1
    16     2    14 1
    17     6    15 1
    18     7    16 1
    19    10    17 1
    20    11    18 1
@<TRIPOS>SUBSTRUCTURE
     1 6XI         1 TEMP              0 ****  ****    0 ROOT
