@<TRIPOS>MOLECULE
6XJ
   82    85     1     0     0
SMALL
bcc


@<TRIPOS>ATOM
      1 C1           0.0000     0.0000     0.0000 c          1 6XJ       0.562100
      2 C2           1.5060     0.0000     0.0000 c3         1 6XJ      -0.106400
      3 C3           2.0160     0.0000     1.4430 c3         1 6XJ       0.027700
      4 C7           4.8180     0.7550     4.8830 ca         1 6XJ       0.021000
      5 C8           4.9320    -0.4930     5.4700 ca         1 6XJ      -0.153600
      6 C9           4.5950    -1.6280     4.7530 ca         1 6XJ       0.063400
      7 C10          4.1450    -1.5140     3.4500 ca         1 6XJ      -0.228000
      8 C12          0.6840     2.5280     3.9870 c3         1 6XJ      -0.041000
      9 C13          0.6220     1.9910     6.4180 ca         1 6XJ      -0.110400
     10 C14          1.6230     2.8490     6.8500 ca         1 6XJ      -0.119000
     11 C15          2.2730     2.5980     8.0430 ca         1 6XJ      -0.088000
     12 C16          1.9260     1.4960     8.8030 ca         1 6XJ      -0.091000
     13 C19         -0.7880    -0.0600     6.6880 c3         1 6XJ       0.002900
     14 C20         -2.1750     0.5500     6.9070 c3         1 6XJ      -0.011400
     15 C21         -2.1520     2.0260     6.5070 c3         1 6XJ      -0.072300
     16 C22         -1.4020     2.2120     5.2180 c          1 6XJ       0.612500
     17 C24         -5.2260     4.3000     6.3140 c3         1 6XJ      -0.117400
     18 C27         -6.7830     7.7590     6.8200 ca         1 6XJ      -0.171300
     19 C30         -6.9010    10.4510     7.4390 ca         1 6XJ       0.035100
     20 C31         -6.7380    10.0490     6.1250 ca         1 6XJ      -0.055000
     21 C32         -6.6790     8.7040     5.8160 ca         1 6XJ      -0.093000
     22 Br          -6.9820    12.2920     7.8620 br         1 6XJ      -0.058100
     23 C29         -7.0070     9.5050     8.4430 ca         1 6XJ      -0.055000
     24 C28         -6.9470     8.1590     8.1330 ca         1 6XJ      -0.093000
     25 C26         -6.7250     6.2910     6.4820 c3         1 6XJ       0.026900
     26 C25         -5.2730     5.8130     6.5340 c3         1 6XJ      -0.042500
     27 N4          -4.4980     6.4850     5.4830 nz         1 6XJ       0.026400
     28 O3          -2.9280     4.5950     6.7590 o          1 6XJ      -0.706100
     29 N3          -3.5280     2.5010     6.3390 ns         1 6XJ      -0.084900
     30 C18          0.2810     0.8820     7.1770 ca         1 6XJ      -0.086300
     31 C17          0.9320     0.6370     8.3710 ca         1 6XJ      -0.077000
     32 O2          -2.0110     2.3370     4.1760 o          1 6XJ      -0.693500
     33 N2          -0.0570     2.2410     5.2180 n          1 6XJ       0.071000
     34 O1           0.5890     0.1850     3.7230 o          1 6XJ      -0.625100
     35 N1           1.6420     1.2580     2.0930 ns         1 6XJ      -0.167900
     36 O           -0.6060    -0.1040     1.0450 o          1 6XJ      -0.628100
     37 N           -0.6740     0.1210    -1.1600 ns         1 6XJ      -0.194900
     38 C           -2.1390     0.1200    -1.1600 c3         1 6XJ       0.072300
     39 C4           3.5400    -0.1420     1.4450 c3         1 6XJ       0.000900
     40 C5           4.0300    -0.2660     2.8650 ca         1 6XJ      -0.001300
     41 C6           4.3670     0.8670     3.5800 ca         1 6XJ      -0.332000
     42 H1           1.8670     0.8860    -0.5080 hc         1 6XJ       0.035200
     43 H2           1.8710    -0.8840    -0.5100 hc         1 6XJ       0.035200
     44 H3           1.5770    -0.8240     1.9930 h1         1 6XJ       0.102700
     45 H4           4.9770     1.6470     5.4770 ha         1 6XJ       0.117000
     46 H5           4.9580    -1.5670     2.7370 ha         1 6XJ       0.176000
     47 H6           0.2210     3.2780     3.3580 h1         1 6XJ       0.051700
     48 H7           1.7400     2.7060     4.1520 h1         1 6XJ       0.051700
     49 H8           1.8920     3.7150     6.2580 ha         1 6XJ       0.111000
     50 H9           3.0530     3.2660     8.3880 ha         1 6XJ       0.111000
     51 H10          2.4400     1.3010     9.7360 ha         1 6XJ       0.113000
     52 H11         -0.7160    -1.0040     7.2140 hc         1 6XJ       0.057200
     53 H12         -0.6440    -0.2250     5.6270 hc         1 6XJ       0.057200
     54 H13         -2.4360     0.4700     7.9550 hc         1 6XJ       0.027200
     55 H14         -2.9030     0.0180     6.3070 hc         1 6XJ       0.027200
     56 H15         -1.6830     2.6090     7.2900 h1         1 6XJ       0.080700
     57 H16         -5.8750     3.8030     7.0240 hc         1 6XJ       0.062700
     58 H17         -5.5730     4.0640     5.3150 hc         1 6XJ       0.062700
     59 H18         -6.6520    10.7870     5.3370 ha         1 6XJ       0.131500
     60 H19         -6.4860     8.3290     4.8180 ha         1 6XJ       0.104500
     61 H20         -7.1660     9.8150     9.4680 ha         1 6XJ       0.131500
     62 H21         -7.0300     7.4180     8.9190 ha         1 6XJ       0.104500
     63 H22         -7.3220     5.7310     7.1920 hc         1 6XJ       0.050700
     64 H23         -7.1170     6.1380     5.4830 hc         1 6XJ       0.050700
     65 H24         -4.8500     6.0500     7.5030 hx         1 6XJ       0.108700
     66 H25         -4.8250     7.4250     5.3790 hn         1 6XJ       0.239800
     67 H26         -4.6090     5.9960     4.6170 hn         1 6XJ       0.239800
     68 H28         -4.2410     1.8760     6.0210 hn         1 6XJ       0.186500
     69 H29          0.6630    -0.2250     8.9690 ha         1 6XJ       0.116000
     70 H30          2.0360     2.1190     1.7670 hn         1 6XJ       0.169500
     71 H31         -0.1810     0.3660    -1.9950 hn         1 6XJ       0.169500
     72 H32         -2.4980     0.4260    -0.1850 h1         1 6XJ       0.013367
     73 H33         -2.5010     0.8120    -1.9120 h1         1 6XJ       0.013367
     74 H34         -2.4970    -0.8780    -1.3850 h1         1 6XJ       0.013367
     75 H35          4.0140     0.7000     0.9560 hc         1 6XJ       0.035200
     76 H36          3.8300    -1.0530     0.9360 hc         1 6XJ       0.035200
     77 H37          3.5120     0.9970     4.2320 ha         1 6XJ       0.186000
     78 C11          0.9670     1.2390     3.2600 c          1 6XJ       0.545100
     79 Cl           4.7380    -3.1940     5.4870 cl         1 6XJ       0.046600
     80 C23         -3.8120     3.8110     6.4870 c          1 6XJ       0.553100
     81 H43         -3.5300     6.4990     5.7370 hn         1 6XJ       0.239800
     82 Cl1          5.4970    -0.6340     7.1040 cl         1 6XJ       0.016600
@<TRIPOS>BOND
     1     1     2 1   
     2     1    36 2   
     3     1    37 1   
     4     2     3 1   
     5     2    42 1   
     6     2    43 1   
     7     3    35 1   
     8     3    39 1   
     9     3    44 1   
    10     4     5 ar  
    11     4    41 ar  
    12     4    45 1   
    13     5     6 ar  
    14     5    82 1   
    15     6     7 ar  
    16     6    79 1   
    17     7    40 ar  
    18     7    46 1   
    19     8    33 1   
    20     8    47 1   
    21     8    48 1   
    22     8    78 1   
    23     9    10 ar  
    24     9    30 ar  
    25     9    33 1   
    26    10    11 ar  
    27    10    49 1   
    28    11    12 ar  
    29    11    50 1   
    30    12    31 ar  
    31    12    51 1   
    32    13    14 1   
    33    13    30 1   
    34    13    52 1   
    35    13    53 1   
    36    14    15 1   
    37    14    54 1   
    38    14    55 1   
    39    15    16 1   
    40    15    29 1   
    41    15    56 1   
    42    16    32 2   
    43    16    33 1   
    44    17    26 1   
    45    17    57 1   
    46    17    58 1   
    47    17    80 1   
    48    18    21 ar  
    49    18    24 ar  
    50    18    25 1   
    51    19    20 ar  
    52    19    22 1   
    53    19    23 ar  
    54    20    21 ar  
    55    20    59 1   
    56    21    60 1   
    57    23    24 ar  
    58    23    61 1   
    59    24    62 1   
    60    25    26 1   
    61    25    63 1   
    62    25    64 1   
    63    26    27 1   
    64    26    65 1   
    65    27    66 1   
    66    27    67 1   
    67    27    81 1   
    68    28    80 2   
    69    29    68 1   
    70    29    80 1   
    71    30    31 ar  
    72    31    69 1   
    73    34    78 2   
    74    35    70 1   
    75    35    78 1   
    76    37    38 1   
    77    37    71 1   
    78    38    72 1   
    79    38    73 1   
    80    38    74 1   
    81    39    40 1   
    82    39    75 1   
    83    39    76 1   
    84    40    41 ar  
    85    41    77 1   
@<TRIPOS>SUBSTRUCTURE
     1 6XJ         1 TEMP              0 ****  ****    0 ROOT
