@<TRIPOS>MOLECULE
molecule
   56    60     1     0     0
SMALL
bcc


@<TRIPOS>ATOM
      1 C1           0.0000     0.0000     0.0000 c3         1 6XK      -0.170100
      2 C2           1.5070     0.0000     0.0000 c          1 6XK       0.650100
      3 C7           5.6850    -0.2770    -0.0740 ca         1 6XK       0.161600
      4 C8           6.3440     0.2480    -1.1800 ca         1 6XK      -0.130000
      5 C9           5.6210     0.6870    -2.2730 ca         1 6XK      -0.090000
      6 C10          4.2420     0.6050    -2.2700 ca         1 6XK      -0.164300
      7 C11          3.4570     1.0850    -3.4640 cx         1 6XK       0.002600
      8 C12          4.2220     1.8370    -4.5560 cx         1 6XK      -0.070400
      9 C13          3.7330     0.4080    -4.8090 cx         1 6XK      -0.275700
     10 C14          2.5510     0.2250    -5.7620 c3         1 6XK       0.152800
     11 C19          9.5230     0.0620     2.7810 cc         1 6XK       0.415300
     12 C21          9.0650     1.6790     1.1120 cc         1 6XK       0.526500
     13 C24         10.8480     3.0470     1.3710 cd         1 6XK       0.475500
     14 N25         10.9560     2.0800     2.2420 nc         1 6XK      -0.605100
     15 C30         11.0540    -1.7130     6.0930 cx         1 6XK      -0.127900
     16 C31         11.8280    -2.1670     5.0640 cx         1 6XK      -0.127900
     17 O3           2.1140     0.0000     1.0500 o          1 6XK      -0.559100
     18 N4           2.1800     0.0000    -1.1670 ns         1 6XK      -0.485100
     19 C5           3.5770     0.0810    -1.1690 ca         1 6XK       0.100600
     20 C6           4.3010    -0.3600    -0.0700 ca         1 6XK      -0.126000
     21 N15          2.9840    -0.5430    -6.9370 nz         1 6XK      -0.808600
     22 C17          7.5830    -0.0750     1.3960 cd         1 6XK       0.777200
     23 C18          8.3760    -0.5920     2.4290 cd         1 6XK      -0.459300
     24 N20          9.8680     1.2100     2.1130 na         1 6XK      -0.021800
     25 N22          7.9460     1.0360     0.7730 nc         1 6XK      -0.806000
     26 C23          9.6700     2.8520     0.6230 cd         1 6XK      -0.259300
     27 C26          9.1830     3.6880    -0.4330 ch         1 6XK       0.268500
     28 N27          8.8150     4.3530    -1.2770 n1         1 6XK      -0.407800
     29 C29         10.5260    -1.5220     4.8900 cx         1 6XK       0.221500
     30 H1          -0.3610     0.0700     1.0190 hc         1 6XK       0.067033
     31 H2          -0.3610     0.8470    -0.5700 hc         1 6XK       0.067033
     32 H3          -0.3610    -0.9180    -0.4480 hc         1 6XK       0.067033
     33 H4           7.4270     0.2760    -1.2020 ha         1 6XK       0.169000
     34 H5           6.1370     1.0880    -3.1370 ha         1 6XK       0.132000
     35 H6           2.4000     0.9270    -3.2890 hc         1 6XK       0.084700
     36 H7           5.2920     1.6650    -4.5800 hc         1 6XK       0.108700
     37 H8           3.8200     2.8050    -4.8260 hc         1 6XK       0.108700
     38 H9           4.5190    -0.3380    -4.8040 hc         1 6XK       0.112700
     39 H10          2.5260     1.0450    -6.4690 hx         1 6XK       0.096700
     40 H11          1.6280     0.2090    -5.1950 hx         1 6XK       0.096700
     41 H12         11.6440     3.7770     1.4500 h4         1 6XK       0.074800
     42 H15         11.8450    -3.2410     4.9240 hc         1 6XK       0.090450
     43 H16         12.6910    -1.5600     4.8200 hc         1 6XK       0.090450
     44 H17          1.6620    -0.0240    -2.0230 hn         1 6XK       0.307500
     45 H18          3.9990    -1.1240     0.6360 ha         1 6XK       0.158000
     46 H19          2.2130    -0.6530    -7.5670 hn         1 6XK       0.454467
     47 H20          3.3080    -1.4450    -6.6460 hn         1 6XK       0.454467
     48 H23          8.0630    -1.4700     2.9800 ha         1 6XK       0.163000
     49 H25          9.7740    -2.2760     4.6910 h1         1 6XK       0.067700
     50 H13         11.4180    -0.8190     6.5840 hc         1 6XK       0.090450
     51 H153         3.5840     0.0230    -7.5040 hn         1 6XK       0.454467
     52 N16          6.4170    -0.7250     1.0280 nu         1 6XK      -0.750300
     53 N28         10.3200    -0.4210     3.7970 nu         1 6XK      -0.792600
     54 H14         10.5790    -2.4850     6.6870 hc         1 6XK       0.090450
     55 H22          6.1830    -1.6440     1.3490 hn         1 6XK       0.460800
     56 H24         11.1530     0.1210     3.9210 hn         1 6XK       0.411800
@<TRIPOS>BOND
     1    15    16 1   
     2    15    29 1   
     3    16    29 1   
     4    29    53 1   
     5     4     5 ar  
     6     4     3 ar  
     7    53    11 1   
     8     5     6 ar  
     9    23    11 2   
    10    23    22 1   
    11    52     3 1   
    12    52    22 1   
    13     3    20 ar  
    14    11    24 1   
    15     9     8 1   
    16     9    10 1   
    17     9     7 1   
    18    22    25 2   
    19     8     7 1   
    20    21    10 1   
    21     6     7 1   
    22     6    19 ar  
    23    20    19 ar  
    24    24    12 1   
    25    24    14 1   
    26    25    12 1   
    27    19    18 1   
    28    12    26 2   
    29    14    13 2   
    30    18     2 1   
    31    13    26 1   
    32    26    27 1   
    33     2     1 1   
    34     2    17 2   
    35    27    28 3   
    36     1    30 1   
    37     1    31 1   
    38     1    32 1   
    39     4    33 1   
    40     5    34 1   
    41     7    35 1   
    42     8    36 1   
    43     8    37 1   
    44     9    38 1   
    45    10    39 1   
    46    10    40 1   
    47    13    41 1   
    48    15    50 1   
    49    15    54 1   
    50    16    42 1   
    51    16    43 1   
    52    18    44 1   
    53    20    45 1   
    54    21    46 1   
    55    21    47 1   
    56    52    55 1   
    57    23    48 1   
    58    53    56 1   
    59    29    49 1   
    60    51    21 1   
@<TRIPOS>SUBSTRUCTURE
     1 6XK         1 TEMP              0 ****  ****    0 ROOT
