@<TRIPOS>MOLECULE
6XL
   65    69     1     0     0
SMALL
bcc


@<TRIPOS>ATOM
      1 C4           0.0000     0.0000     0.0000 c3         1 6XL       0.004900
      2 C14          1.5610     0.0000     3.7790 ca         1 6XL       0.192900
      3 C5           2.0340    -0.0000     1.4200 ca         1 6XL      -0.021300
      4 C6           3.3900     0.0000     1.6620 ca         1 6XL      -0.102000
      5 C11          3.4560     0.0010     5.4160 c          1 6XL       0.613100
      6 C7           3.8570     0.0010     2.9760 ca         1 6XL      -0.121900
      7 C8           5.2870    -0.0000     3.2880 cc         1 6XL       0.426800
      8 C13          2.9320     0.0000     4.0470 ca         1 6XL      -0.190600
      9 C3           2.0400    -1.2490    -0.7220 c3         1 6XL       0.004900
     10 C1           2.0400     1.2490    -0.7230 c3         1 6XL       0.004900
     11 C2           1.5300     0.0000     0.0000 c3         1 6XL      -0.022700
     12 N9           5.6820    -0.0010     4.5260 nd         1 6XL      -0.494300
     13 N10          4.7930     0.0020     5.6010 n          1 6XL       0.160700
     14 O12          2.6980     0.0010     6.3700 o          1 6XL      -0.647500
     15 C15          1.1250    -0.0000     2.4690 ca         1 6XL      -0.158000
     16 C17          5.2990     0.0020     6.9010 ca         1 6XL       0.397200
     17 C18          5.6530    -1.1990     7.5000 ca         1 6XL      -0.175600
     18 C19          6.1570    -1.1830     8.8010 ca         1 6XL       0.019200
     19 C20          6.2860     0.0530     9.4470 ca         1 6XL      -0.203300
     20 C21          5.9110     1.2000     8.7810 ca         1 6XL       0.415200
     21 N22          5.4420     1.1480     7.5480 nb         1 6XL      -0.547000
     22 C23          6.5480    -2.4410     9.4820 cc         1 6XL      -0.131200
     23 C24          7.7490    -3.0950     9.1280 cc         1 6XL      -0.009000
     24 C25          8.0890    -4.2530     9.7680 cd         1 6XL      -0.156200
     25 C26          7.2330    -4.7670    10.7680 c          1 6XL       0.575700
     26 O27          7.5260    -5.8010    11.3460 o          1 6XL      -0.686500
     27 N28          6.0950    -4.1210    11.0830 n          1 6XL       0.131000
     28 C29          5.7520    -2.9680    10.4560 cd         1 6XL      -0.126400
     29 C30          5.2180    -4.6680    12.1210 c3         1 6XL       0.045300
     30 N31          9.2740    -4.9220     9.4360 nu         1 6XL      -0.279700
     31 C32          9.2240    -6.2180     8.9460 ca         1 6XL       0.542200
     32 C33          7.9970    -6.8210     8.6610 ca         1 6XL      -0.403600
     33 C34          8.0000    -8.1130     8.1750 ca         1 6XL       0.479200
     34 N35          9.1580    -8.7350     7.9950 nb         1 6XL      -0.689000
     35 C36         10.3000    -8.1380     8.2740 ca         1 6XL       0.672900
     36 N37         10.3440    -6.9030     8.7350 nb         1 6XL      -0.701000
     37 C38          5.4930    -2.5010     6.7570 c3         1 6XL       0.276700
     38 O39          6.6970    -2.7950     6.0480 oh         1 6XL      -0.582800
     39 H1          -0.3610     0.0030    -1.0210 hc         1 6XL       0.010144
     40 H2          -0.3610     0.8830     0.5130 hc         1 6XL       0.010144
     41 H3          -0.3610    -0.8860     0.5080 hc         1 6XL       0.010144
     42 H4           4.0870    -0.1000     0.8390 ha         1 6XL       0.122000
     43 H5           6.0160    -0.0020     2.4860 h4         1 6XL       0.007800
     44 H6           3.1040    -1.1550    -0.8990 hc         1 6XL       0.010144
     45 H7           1.8520    -2.1230    -0.1090 hc         1 6XL       0.010144
     46 H8           1.5240    -1.3550    -1.6690 hc         1 6XL       0.010144
     47 H9           1.5400     1.3430    -1.6790 hc         1 6XL       0.010144
     48 H10          3.1090     1.1640    -0.8810 hc         1 6XL       0.010144
     49 H11          1.8330     2.1250    -0.1200 hc         1 6XL       0.010144
     50 H12          0.0620    -0.0010     2.2590 ha         1 6XL       0.142000
     51 H13          6.6720     0.1060    10.4570 ha         1 6XL       0.119000
     52 H14          6.0100     2.1600     9.2740 h4         1 6XL      -0.015900
     53 H15          8.3920    -2.6840     8.3590 ha         1 6XL       0.131000
     54 H16          4.8310    -2.4650    10.7260 h4         1 6XL       0.138000
     55 H17          4.4360    -3.9530    12.3460 h1         1 6XL       0.029033
     56 H18          4.7730    -5.5910    11.7680 h1         1 6XL       0.029033
     57 H19          5.7960    -4.8650    13.0160 h1         1 6XL       0.029033
     58 H20         10.1570    -4.4700     9.5660 hn         1 6XL       0.291800
     59 H21          7.0670    -6.2880     8.8180 ha         1 6XL       0.126000
     60 H22          7.0680    -8.6140     7.9420 h4         1 6XL      -0.023900
     61 H23         11.2270    -8.6730     8.1130 h5         1 6XL      -0.006900
     62 H24          5.2860    -3.2970     7.4630 h1         1 6XL      -0.004300
     63 H25          4.6720    -2.4180     6.0560 h1         1 6XL      -0.004300
     64 H26          6.5450    -3.5090     5.4510 ho         1 6XL       0.393000
     65 F16          0.6700    -0.0050     4.7940 f          1 6XL      -0.106900
@<TRIPOS>BOND
     1     1    11 1   
     2     1    39 1   
     3     1    40 1   
     4     1    41 1   
     5     2     8 ar  
     6     2    15 ar  
     7     2    65 1   
     8     3     4 ar  
     9     3    11 1   
    10     3    15 ar  
    11     4     6 ar  
    12     4    42 1   
    13     5     8 1   
    14     5    13 1   
    15     5    14 2   
    16     6     7 1   
    17     6     8 ar  
    18     7    12 2   
    19     7    43 1   
    20     9    11 1   
    21     9    44 1   
    22     9    45 1   
    23     9    46 1   
    24    10    11 1   
    25    10    47 1   
    26    10    48 1   
    27    10    49 1   
    28    12    13 1   
    29    13    16 1   
    30    15    50 1   
    31    16    17 ar  
    32    16    21 ar  
    33    17    18 ar  
    34    17    37 1   
    35    18    19 ar  
    36    18    22 1   
    37    19    20 ar  
    38    19    51 1   
    39    20    21 ar  
    40    20    52 1   
    41    22    23 1   
    42    22    28 2   
    43    23    24 2   
    44    23    53 1   
    45    24    25 1   
    46    24    30 1   
    47    25    26 2   
    48    25    27 1   
    49    27    28 1   
    50    27    29 1   
    51    28    54 1   
    52    29    55 1   
    53    29    56 1   
    54    29    57 1   
    55    30    31 1   
    56    30    58 1   
    57    31    32 ar  
    58    31    36 ar  
    59    32    33 ar  
    60    32    59 1   
    61    33    34 ar  
    62    33    60 1   
    63    34    35 ar  
    64    35    36 ar  
    65    35    61 1   
    66    37    38 1   
    67    37    62 1   
    68    37    63 1   
    69    38    64 1   
@<TRIPOS>SUBSTRUCTURE
     1 6XL         1 TEMP              0 ****  ****    0 ROOT
