@<TRIPOS>MOLECULE
molecule
   65    69     1     0     0
SMALL
bcc


@<TRIPOS>ATOM
      1 C4           0.0000     0.0000     0.0000 c3         1 6XL      -0.082767
      2 C14          1.5610     0.0000     3.7790 ca         1 6XL       0.204900
      3 C5           2.0340    -0.0000     1.4200 ca         1 6XL      -0.015300
      4 C6           3.3900     0.0000     1.6620 ca         1 6XL      -0.133000
      5 C11          3.4560     0.0010     5.4160 c          1 6XL       0.697100
      6 C7           3.8570     0.0010     2.9760 ca         1 6XL      -0.118900
      7 C8           5.2870    -0.0000     3.2880 cc         1 6XL       0.394800
      8 C13          2.9320     0.0000     4.0470 ca         1 6XL      -0.186600
      9 C3           2.0400    -1.2490    -0.7220 c3         1 6XL      -0.082767
     10 C1           2.0400     1.2490    -0.7230 c3         1 6XL      -0.082767
     11 C2           1.5300     0.0000     0.0000 c3         1 6XL      -0.030700
     12 N9           5.6820    -0.0010     4.5260 nd         1 6XL      -0.405300
     13 N10          4.7930     0.0020     5.6010 n          1 6XL      -0.218300
     14 O12          2.6980     0.0010     6.3700 o          1 6XL      -0.601500
     15 C15          1.1250    -0.0000     2.4690 ca         1 6XL      -0.180000
     16 C17          5.2990     0.0020     6.9010 ca         1 6XL       0.587200
     17 C18          5.6530    -1.1990     7.5000 ca         1 6XL      -0.166600
     18 C19          6.1570    -1.1830     8.8010 ca         1 6XL       0.015200
     19 C20          6.2860     0.0530     9.4470 ca         1 6XL      -0.241300
     20 C21          5.9110     1.2000     8.7810 ca         1 6XL       0.440200
     21 N22          5.4420     1.1480     7.5480 nb         1 6XL      -0.677000
     22 C23          6.5480    -2.4410     9.4820 cd         1 6XL      -0.148200
     23 C24          7.7490    -3.0950     9.1280 cd         1 6XL      -0.038000
     24 C25          8.0890    -4.2530     9.7680 cc         1 6XL       0.002800
     25 C26          7.2330    -4.7670    10.7680 c          1 6XL       0.667700
     26 O27          7.5260    -5.8010    11.3460 o          1 6XL      -0.632500
     27 N28          6.0950    -4.1210    11.0830 n          1 6XL      -0.314000
     28 C29          5.7520    -2.9680    10.4560 cc         1 6XL       0.016600
     29 C30          5.2180    -4.6680    12.1210 c3         1 6XL       0.082300
     30 N31          9.2740    -4.9220     9.4360 nu         1 6XL      -0.754700
     31 C32          9.2240    -6.2180     8.9460 ca         1 6XL       0.737200
     32 C33          7.9970    -6.8210     8.6610 ca         1 6XL      -0.416600
     33 C34          8.0000    -8.1130     8.1750 ca         1 6XL       0.480200
     34 N35          9.1580    -8.7350     7.9950 nb         1 6XL      -0.781000
     35 C36         10.3000    -8.1380     8.2740 ca         1 6XL       0.715900
     36 N37         10.3440    -6.9030     8.7350 nb         1 6XL      -0.805000
     37 C38          5.4930    -2.5010     6.7570 c3         1 6XL       0.192700
     38 O39          6.6970    -2.7950     6.0480 oh         1 6XL      -0.600800
     39 H1          -0.3610     0.0030    -1.0210 hc         1 6XL       0.041033
     40 H2          -0.3610     0.8830     0.5130 hc         1 6XL       0.041033
     41 H3          -0.3610    -0.8860     0.5080 hc         1 6XL       0.041033
     42 H4           4.0870    -0.1000     0.8390 ha         1 6XL       0.145000
     43 H5           6.0160    -0.0020     2.4860 h4         1 6XL       0.062800
     44 H6           3.1040    -1.1550    -0.8990 hc         1 6XL       0.041033
     45 H7           1.8520    -2.1230    -0.1090 hc         1 6XL       0.041033
     46 H8           1.5240    -1.3550    -1.6690 hc         1 6XL       0.041033
     47 H9           1.5400     1.3430    -1.6790 hc         1 6XL       0.041033
     48 H10          3.1090     1.1640    -0.8810 hc         1 6XL       0.041033
     49 H11          1.8330     2.1250    -0.1200 hc         1 6XL       0.041033
     50 H12          0.0620    -0.0010     2.2590 ha         1 6XL       0.161000
     51 H13          6.6720     0.1060    10.4570 ha         1 6XL       0.146000
     52 H14          6.0100     2.1600     9.2740 h4         1 6XL       0.031100
     53 H15          8.3920    -2.6840     8.3590 ha         1 6XL       0.165000
     54 H16          4.8310    -2.4650    10.7260 h4         1 6XL       0.165000
     55 H17          4.4360    -3.9530    12.3460 h1         1 6XL       0.060033
     56 H18          4.7730    -5.5910    11.7680 h1         1 6XL       0.060033
     57 H19          5.7960    -4.8650    13.0160 h1         1 6XL       0.060033
     58 H20         10.1570    -4.4700     9.5660 hn         1 6XL       0.464800
     59 H21          7.0670    -6.2880     8.8180 ha         1 6XL       0.142000
     60 H22          7.0680    -8.6140     7.9420 h4         1 6XL       0.024100
     61 H23         11.2270    -8.6730     8.1130 h5         1 6XL       0.056100
     62 H24          5.2860    -3.2970     7.4630 h1         1 6XL       0.033700
     63 H25          4.6720    -2.4180     6.0560 h1         1 6XL       0.033700
     64 H26          6.5450    -3.5090     5.4510 ho         1 6XL       0.406000
     65 F16          0.6700    -0.0050     4.7940 f          1 6XL      -0.106900
@<TRIPOS>BOND
     1    34    33 ar
     2    34    35 ar
     3    33    32 ar
     4    35    36 ar
     5    32    31 ar
     6    36    31 ar
     7    31    30 1
     8    30    24 1
     9    24    23 2
    10    24    25 1
    11    23    22 1
    12    26    25 2
    13    25    27 1
    14    19    20 ar
    15    19    18 ar
    16    20    21 ar
    17    22    18 1
    18    22    28 2
    19    27    28 1
    20    27    29 1
    21    18    17 ar
    22    21    16 ar
    23    17    16 ar
    24    17    37 1
    25    16    13 1
    26    37    38 1
    27    13    12 1
    28    13     5 1
    29    12     7 2
    30    14     5 2
    31     5     8 1
    32     7     6 1
    33     8     6 ar
    34     8     2 ar
    35     6     4 ar
    36    65     2 1
    37     2    15 ar
    38     4     3 ar
    39    15     3 ar
    40     3    11 1
    41     9    11 1
    42    11    10 1
    43    11     1 1
    44     1    39 1
    45     1    40 1
    46     1    41 1
    47     4    42 1
    48     7    43 1
    49     9    44 1
    50     9    45 1
    51     9    46 1
    52    10    47 1
    53    10    48 1
    54    10    49 1
    55    15    50 1
    56    19    51 1
    57    20    52 1
    58    23    53 1
    59    28    54 1
    60    29    55 1
    61    29    56 1
    62    29    57 1
    63    30    58 1
    64    32    59 1
    65    33    60 1
    66    35    61 1
    67    37    62 1
    68    37    63 1
    69    38    64 1
@<TRIPOS>SUBSTRUCTURE
     1 6XL         1 TEMP              0 ****  ****    0 ROOT
