@<TRIPOS>MOLECULE
molecule
   72    79     1     0     0
SMALL
bcc


@<TRIPOS>ATOM
      1 C1           0.0000     0.0000     0.0000 ca         1 6XM      -0.178000
      2 C2           1.3820     0.0000     0.0000 ca         1 6XM      -0.070000
      3 CA           3.4610     0.4720     3.7070 c3         1 6XM       0.234800
      4 CB           3.4540     1.9650     4.0380 c3         1 6XM       0.133300
      5 CC1          4.8800     3.8170     4.6750 c3         1 6XM       0.122050
      6 CD1          6.3380     4.2630     4.8080 c3         1 6XM       0.139150
      7 O1           6.9780     4.1710     3.5320 os         1 6XM      -0.423600
      8 CD2          6.9550     2.8560     2.9700 c3         1 6XM       0.139150
      9 CC2          5.5030     2.3950     2.8200 c3         1 6XM       0.122050
     10 N2           4.8370     2.4530     4.1290 n3         1 6XM      -0.731100
     11 N1           2.0820    -0.0150     3.6160 nh         1 6XM      -0.580400
     12 C6           1.3960     0.0090     2.3960 ca         1 6XM       0.216100
     13 C7           0.0100     0.0610     2.3950 ca         1 6XM      -0.188800
     14 C3           2.0850     0.0000     1.1900 ca         1 6XM      -0.207000
     15 C8          -0.6960     0.0210     1.2020 ca         1 6XM       0.168100
     16 O           -2.0530    -0.0170     1.2120 os         1 6XM      -0.229200
     17 C8'         -2.6970    -0.5000     2.3050 ca         1 6XM       0.168100
     18 C1'         -3.9770    -1.0280     2.1930 ca         1 6XM      -0.178000
     19 C2'         -4.6190    -1.5360     3.3060 ca         1 6XM      -0.070000
     20 C3'         -3.9920    -1.5340     4.5390 ca         1 6XM      -0.207000
     21 C6'         -2.7130    -1.0070     4.6610 ca         1 6XM       0.216100
     22 C7'         -2.0860    -0.4660     3.5490 ca         1 6XM      -0.188800
     23 C11         -0.7400     0.1910     3.6920 c3         1 6XM       0.116200
     24 C10          0.0350    -0.4460     4.8110 ca         1 6XM      -0.169300
     25 C9           1.4210    -0.4970     4.7510 ca         1 6XM       0.215600
     26 C4           2.1370    -1.0350     5.8130 ca         1 6XM      -0.212500
     27 C5           1.4670    -1.5470     6.9090 ca         1 6XM      -0.065000
     28 C4'          0.0850    -1.5390     6.9480 ca         1 6XM      -0.212500
     29 C9'         -0.6370    -1.0010     5.8910 ca         1 6XM       0.215600
     30 N1'         -2.0350    -1.0500     5.8850 nh         1 6XM      -0.580400
     31 CA'         -2.7810    -1.1460     7.1430 c3         1 6XM       0.234800
     32 CB'         -2.9890    -2.6190     7.5010 c3         1 6XM       0.133300
     33 N2'         -3.7350    -2.7140     8.7620 n3         1 6XM      -0.731100
     34 CC2'        -3.7500    -4.0970     9.2620 c3         1 6XM       0.122050
     35 CD2'        -4.4850    -4.1400    10.6050 c3         1 6XM       0.139150
     36 O1'         -5.8030    -3.6100    10.4390 os         1 6XM      -0.423600
     37 CD1'        -5.8260    -2.2650     9.9530 c3         1 6XM       0.139150
     38 CC1'        -5.1040    -2.2020     8.6040 c3         1 6XM       0.122050
     39 H1          -0.5410    -0.0000    -0.9390 ha         1 6XM       0.145000
     40 H2           1.9190    -0.0000    -0.9410 ha         1 6XM       0.136000
     41 HA1          3.9620     0.3140     2.7590 h1         1 6XM       0.064450
     42 HA2          3.9840    -0.0680     4.4860 h1         1 6XM       0.064450
     43 HB2          2.9530     2.1230     4.9850 h1         1 6XM       0.047950
     44 HB1          2.9320     2.5050     3.2580 h1         1 6XM       0.047950
     45 HC1          4.3570     4.4900     4.0060 h1         1 6XM       0.044075
     46 HD2          6.3710     5.2890     5.1550 h1         1 6XM       0.054075
     47 HD1          6.8490     3.6200     5.5150 h1         1 6XM       0.054075
     48 HD3          7.4830     2.1740     3.6260 h1         1 6XM       0.054075
     49 HD4          7.4310     2.8710     1.9970 h1         1 6XM       0.054075
     50 HC3          4.9880     3.0470     2.1240 h1         1 6XM       0.044075
     51 HC4          5.4840     1.3770     2.4500 h1         1 6XM       0.044075
     52 H3           3.1680    -0.0000     1.1830 ha         1 6XM       0.135000
     53 H1'         -4.4760    -1.0340     1.2310 ha         1 6XM       0.145000
     54 H2'         -5.6200    -1.9390     3.2130 ha         1 6XM       0.136000
     55 H3'         -4.5010    -1.9340     5.4080 ha         1 6XM       0.135000
     56 H7          -0.8810     1.2410     3.9140 hc         1 6XM       0.074700
     57 H4           3.2200    -1.0440     5.7870 ha         1 6XM       0.138000
     58 H5           2.0270    -1.9560     7.7400 ha         1 6XM       0.133000
     59 H4'         -0.4350    -1.9410     7.8090 ha         1 6XM       0.138000
     60 HA2'        -3.7430    -0.6620     7.0300 h1         1 6XM       0.064450
     61 HA1'        -2.2210    -0.6570     7.9320 h1         1 6XM       0.064450
     62 HB1'        -2.0260    -3.1030     7.6140 h1         1 6XM       0.047950
     63 HB2'        -3.5480    -3.1070     6.7120 h1         1 6XM       0.047950
     64 HC3'        -2.7330    -4.4430     9.3970 h1         1 6XM       0.044075
     65 HC4'        -4.2630    -4.7320     8.5500 h1         1 6XM       0.044075
     66 HD3'        -3.9450    -3.5440    11.3310 h1         1 6XM       0.054075
     67 HD4'        -4.5490    -5.1660    10.9470 h1         1 6XM       0.054075
     68 HD2'        -6.8530    -1.9450     9.8270 h1         1 6XM       0.054075
     69 HD1'        -5.3230    -1.6180    10.6610 h1         1 6XM       0.054075
     70 HC2'        -5.0680    -1.1750     8.2630 h1         1 6XM       0.044075
     71 HC1'        -5.6360    -2.8100     7.8820 h1         1 6XM       0.044075
     72 HC2          4.4090     3.8300     5.6510 h1         1 6XM       0.044075
@<TRIPOS>BOND
     1    36    37 1
     2    36    35 1
     3    37    38 1
     4    38    33 1
     5    35    34 1
     6    34    33 1
     7    33    32 1
     8    32    31 1
     9    31    30 1
    10    20    19 ar
    11    20    21 ar
    12    19    18 ar
    13    30    21 1
    14    30    29 1
    15    21    22 ar
    16    18    17 ar
    17    28    29 ar
    18    28    27 ar
    19    29    24 ar
    20    22    17 ar
    21    22    23 1
    22    17    16 1
    23    27    26 ar
    24    24    23 1
    25    24    25 ar
    26    23    13 1
    27    16    15 1
    28    26    25 ar
    29    25    11 1
    30    13    15 ar
    31    13    12 ar
    32    15     1 ar
    33    11    12 1
    34    11     3 1
    35    12    14 ar
    36     1     2 ar
    37     3     4 1
    38     4    10 1
    39     5    10 1
    40     5     6 1
    41    14     2 ar
    42    10     9 1
    43     6     7 1
    44     9     8 1
    45     7     8 1
    46     1    39 1
    47     2    40 1
    48     3    41 1
    49     3    42 1
    50     4    43 1
    51     4    44 1
    52     5    72 1
    53     5    45 1
    54     6    46 1
    55     6    47 1
    56     8    48 1
    57     8    49 1
    58     9    50 1
    59     9    51 1
    60    14    52 1
    61    18    53 1
    62    19    54 1
    63    20    55 1
    64    23    56 1
    65    26    57 1
    66    27    58 1
    67    28    59 1
    68    31    60 1
    69    31    61 1
    70    32    62 1
    71    32    63 1
    72    34    64 1
    73    34    65 1
    74    35    66 1
    75    35    67 1
    76    37    68 1
    77    37    69 1
    78    38    70 1
    79    38    71 1
@<TRIPOS>SUBSTRUCTURE
     1 6XM         1 TEMP              0 ****  ****    0 ROOT
