@<TRIPOS>MOLECULE
6XM
   72    79     1     0     0
SMALL
bcc


@<TRIPOS>ATOM
      1 C1           0.0000     0.0000     0.0000 ca         1 6XM      -0.164000
      2 C2           1.3820     0.0000     0.0000 ca         1 6XM      -0.034000
      3 CA           3.4610     0.4720     3.7070 c3         1 6XM       0.139800
      4 CB           3.4540     1.9650     4.0380 c3         1 6XM       0.121300
      5 CC1          4.8800     3.8170     4.6750 c3         1 6XM       0.107050
      6 CD1          6.3380     4.2630     4.8080 c3         1 6XM       0.215150
      7 O1           6.9780     4.1710     3.5320 os         1 6XM      -0.410600
      8 CD2          6.9550     2.8560     2.9700 c3         1 6XM       0.215150
      9 CC2          5.5030     2.3950     2.8200 c3         1 6XM       0.107050
     10 N2           4.8370     2.4530     4.1290 n3         1 6XM      -0.535600
     11 N1           2.0820    -0.0150     3.6160 nh         1 6XM      -0.172400
     12 C6           1.3960     0.0090     2.3960 ca         1 6XM       0.080100
     13 C7           0.0100     0.0610     2.3950 ca         1 6XM      -0.204800
     14 C3           2.0850     0.0000     1.1900 ca         1 6XM      -0.196500
     15 C8          -0.6960     0.0210     1.2020 ca         1 6XM       0.175600
     16 O           -2.0530    -0.0170     1.2120 os         1 6XM      -0.199200
     17 C8'         -2.6970    -0.5000     2.3050 ca         1 6XM       0.175600
     18 C1'         -3.9770    -1.0280     2.1930 ca         1 6XM      -0.164000
     19 C2'         -4.6190    -1.5360     3.3060 ca         1 6XM      -0.034000
     20 C3'         -3.9920    -1.5340     4.5390 ca         1 6XM      -0.196500
     21 C6'         -2.7130    -1.0070     4.6610 ca         1 6XM       0.080100
     22 C7'         -2.0860    -0.4660     3.5490 ca         1 6XM      -0.204800
     23 C11         -0.7400     0.1910     3.6920 c3         1 6XM       0.191200
     24 C10          0.0350    -0.4460     4.8110 ca         1 6XM      -0.176300
     25 C9           1.4210    -0.4970     4.7510 ca         1 6XM       0.077100
     26 C4           2.1370    -1.0350     5.8130 ca         1 6XM      -0.196500
     27 C5           1.4670    -1.5470     6.9090 ca         1 6XM      -0.030000
     28 C4'          0.0850    -1.5390     6.9480 ca         1 6XM      -0.196500
     29 C9'         -0.6370    -1.0010     5.8910 ca         1 6XM       0.077100
     30 N1'         -2.0350    -1.0500     5.8850 nh         1 6XM      -0.172400
     31 CA'         -2.7810    -1.1460     7.1430 c3         1 6XM       0.139800
     32 CB'         -2.9890    -2.6190     7.5010 c3         1 6XM       0.121300
     33 N2'         -3.7350    -2.7140     8.7620 n3         1 6XM      -0.535600
     34 CC2'        -3.7500    -4.0970     9.2620 c3         1 6XM       0.107050
     35 CD2'        -4.4850    -4.1400    10.6050 c3         1 6XM       0.215150
     36 O1'         -5.8030    -3.6100    10.4390 os         1 6XM      -0.410600
     37 CD1'        -5.8260    -2.2650     9.9530 c3         1 6XM       0.215150
     38 CC1'        -5.1040    -2.2020     8.6040 c3         1 6XM       0.107050
     39 H1          -0.5410    -0.0000    -0.9390 ha         1 6XM       0.118000
     40 H2           1.9190    -0.0000    -0.9410 ha         1 6XM       0.102000
     41 HA1          3.9620     0.3140     2.7590 h1         1 6XM       0.041450
     42 HA2          3.9840    -0.0680     4.4860 h1         1 6XM       0.041450
     43 HB2          2.9530     2.1230     4.9850 h1         1 6XM       0.022950
     44 HB1          2.9320     2.5050     3.2580 h1         1 6XM       0.022950
     45 HC1          4.3570     4.4900     4.0060 h1         1 6XM       0.018950
     46 HD2          6.3710     5.2890     5.1550 h1         1 6XM       0.012950
     47 HD1          6.8490     3.6200     5.5150 h1         1 6XM       0.012950
     48 HD3          7.4830     2.1740     3.6260 h1         1 6XM       0.012950
     49 HD4          7.4310     2.8710     1.9970 h1         1 6XM       0.012950
     50 HC3          4.9880     3.0470     2.1240 h1         1 6XM       0.018950
     51 HC4          5.4840     1.3770     2.4500 h1         1 6XM       0.018950
     52 H3           3.1680    -0.0000     1.1830 ha         1 6XM       0.117500
     53 H1'         -4.4760    -1.0340     1.2310 ha         1 6XM       0.118000
     54 H2'         -5.6200    -1.9390     3.2130 ha         1 6XM       0.102000
     55 H3'         -4.5010    -1.9340     5.4080 ha         1 6XM       0.117500
     56 H7          -0.8810     1.2410     3.9140 hc         1 6XM       0.039700
     57 H4           3.2200    -1.0440     5.7870 ha         1 6XM       0.121000
     58 H5           2.0270    -1.9560     7.7400 ha         1 6XM       0.100000
     59 H4'         -0.4350    -1.9410     7.8090 ha         1 6XM       0.121000
     60 HA2'        -3.7430    -0.6620     7.0300 h1         1 6XM       0.041450
     61 HA1'        -2.2210    -0.6570     7.9320 h1         1 6XM       0.041450
     62 HB1'        -2.0260    -3.1030     7.6140 h1         1 6XM       0.022950
     63 HB2'        -3.5480    -3.1070     6.7120 h1         1 6XM       0.022950
     64 HC3'        -2.7330    -4.4430     9.3970 h1         1 6XM       0.018950
     65 HC4'        -4.2630    -4.7320     8.5500 h1         1 6XM       0.018950
     66 HD3'        -3.9450    -3.5440    11.3310 h1         1 6XM       0.012950
     67 HD4'        -4.5490    -5.1660    10.9470 h1         1 6XM       0.012950
     68 HD2'        -6.8530    -1.9450     9.8270 h1         1 6XM       0.012950
     69 HD1'        -5.3230    -1.6180    10.6610 h1         1 6XM       0.012950
     70 HC2'        -5.0680    -1.1750     8.2630 h1         1 6XM       0.018950
     71 HC1'        -5.6360    -2.8100     7.8820 h1         1 6XM       0.018950
     72 HC2          4.4090     3.8300     5.6510 h1         1 6XM       0.018950
@<TRIPOS>BOND
     1     1     2 ar  
     2     1    15 ar  
     3     1    39 1   
     4     2    14 ar  
     5     2    40 1   
     6     3     4 1   
     7     3    11 1   
     8     3    41 1   
     9     3    42 1   
    10     4    10 1   
    11     4    43 1   
    12     4    44 1   
    13     5     6 1   
    14     5    10 1   
    15     5    45 1   
    16     5    72 1   
    17     6     7 1   
    18     6    46 1   
    19     6    47 1   
    20     7     8 1   
    21     8     9 1   
    22     8    48 1   
    23     8    49 1   
    24     9    10 1   
    25     9    50 1   
    26     9    51 1   
    27    11    12 1   
    28    11    25 1   
    29    12    13 ar  
    30    12    14 ar  
    31    13    15 ar  
    32    13    23 1   
    33    14    52 1   
    34    15    16 1   
    35    16    17 1   
    36    17    18 ar  
    37    17    22 ar  
    38    18    19 ar  
    39    18    53 1   
    40    19    20 ar  
    41    19    54 1   
    42    20    21 ar  
    43    20    55 1   
    44    21    22 ar  
    45    21    30 1   
    46    22    23 1   
    47    23    24 1   
    48    23    56 1   
    49    24    25 ar  
    50    24    29 ar  
    51    25    26 ar  
    52    26    27 ar  
    53    26    57 1   
    54    27    28 ar  
    55    27    58 1   
    56    28    29 ar  
    57    28    59 1   
    58    29    30 1   
    59    30    31 1   
    60    31    32 1   
    61    31    60 1   
    62    31    61 1   
    63    32    33 1   
    64    32    62 1   
    65    32    63 1   
    66    33    34 1   
    67    33    38 1   
    68    34    35 1   
    69    34    64 1   
    70    34    65 1   
    71    35    36 1   
    72    35    66 1   
    73    35    67 1   
    74    36    37 1   
    75    37    38 1   
    76    37    68 1   
    77    37    69 1   
    78    38    70 1   
    79    38    71 1   
@<TRIPOS>SUBSTRUCTURE
     1 6XM         1 TEMP              0 ****  ****    0 ROOT
