@<TRIPOS>MOLECULE
molecule
   57    60     1     0     0
SMALL
bcc


@<TRIPOS>ATOM
      1 FAC          0.0000     0.0000     0.0000 f          1 6XN      -0.203967
      2 CBI          1.3990     0.0000     0.0000 c3         1 6XN       0.795700
      3 FAD          1.8650     0.0000     1.3190 f          1 6XN      -0.203967
      4 FAE          1.8650    -1.1430    -0.6590 f          1 6XN      -0.203967
      5 OAX          1.8760     1.1660    -0.6730 os         1 6XN      -0.339900
      6 CBB          1.5110     2.3690    -0.1570 ca         1 6XN       0.135100
      7 CAN          0.7150     2.4260     0.9780 ca         1 6XN      -0.170000
      8 CAL          0.3450     3.6500     1.5010 ca         1 6XN      -0.072000
      9 CAM          1.9380     3.5430    -0.7610 ca         1 6XN      -0.170000
     10 CAK          1.5660     4.7650    -0.2340 ca         1 6XN      -0.072000
     11 CBA          0.7680     4.8180     0.8940 ca         1 6XN      -0.147300
     12 CAT          0.3630     6.1530     1.4660 c3         1 6XN       0.103600
     13 NBH          1.3620     6.5870     2.4450 na         1 6XN      -0.251000
     14 CBF          1.3590     6.3090     3.7940 ca         1 6XN       0.417800
     15 NAU          0.5450     5.6280     4.5860 nb         1 6XN      -0.706000
     16 CAH          0.7790     5.5120     5.8780 ca         1 6XN       0.442200
     17 CAG          1.8890     6.0980     6.4660 ca         1 6XN      -0.276300
     18 CAQ          2.7720     6.8200     5.6860 ca         1 6XN      -0.036000
     19 CBE          2.5060     6.9310     4.3190 ca         1 6XN      -0.020900
     20 NAV          3.1350     7.5440     3.2850 nc         1 6XN      -0.595100
     21 CBD          2.4690     7.3380     2.1860 cd         1 6XN       0.429800
     22 CAS          2.8620     7.8570     0.8270 c3         1 6XN      -0.068700
     23 CAR          2.2360     9.2360     0.6080 c3         1 6XN      -0.160400
     24 CAY          2.6290     9.7550    -0.7510 c          1 6XN       0.659100
     25 OAB          3.3390     9.0890    -1.4730 o          1 6XN      -0.611100
     26 NAW          2.1900    10.9610    -1.1640 ns         1 6XN      -0.582900
     27 CBG          2.5710    11.4660    -2.4850 c3         1 6XN       0.161000
     28 CAA          1.6070    10.9180    -3.5390 c3         1 6XN      -0.106100
     29 CBC          2.5110    12.9720    -2.4840 ca         1 6XN      -0.096300
     30 CAO          3.4850    13.7030    -3.1370 ca         1 6XN      -0.114500
     31 CAI          3.4300    15.0840    -3.1360 ca         1 6XN      -0.116500
     32 CAZ          2.3990    15.7360    -2.4820 ca         1 6XN       0.029400
     33 ClA          2.3290    17.4700    -2.4810 cl         1 6XN      -0.103400
     34 CAJ          1.4240    15.0020    -1.8280 ca         1 6XN      -0.116500
     35 CAP          1.4770    13.6220    -1.8340 ca         1 6XN      -0.114500
     36 H1           0.3840     1.5110     1.4540 ha         1 6XN       0.153000
     37 H2          -0.2780     3.6950     2.3850 ha         1 6XN       0.149000
     38 H3           2.5640     3.5010    -1.6440 ha         1 6XN       0.153000
     39 H4           1.8980     5.6810    -0.7060 ha         1 6XN       0.149000
     40 H5           0.2970     6.8830     0.6690 h1         1 6XN       0.072200
     41 H6          -0.6010     6.0600     1.9510 h1         1 6XN       0.072200
     42 H7           0.0890     4.9480     6.4930 h4         1 6XN       0.025100
     43 H8           2.0620     5.9910     7.5290 ha         1 6XN       0.142000
     44 H9           3.6470     7.2860     6.1230 ha         1 6XN       0.149000
     45 H10          3.9410     7.9370     0.7690 hc         1 6XN       0.083200
     46 H11          2.5090     7.1750     0.0640 hc         1 6XN       0.083200
     47 H12          1.1570     9.1560     0.6660 hc         1 6XN       0.069700
     48 H13          2.5890     9.9180     1.3720 hc         1 6XN       0.069700
     49 H14          1.5890    11.5030    -0.5760 hn         1 6XN       0.316500
     50 H15          3.5800    11.1460    -2.7160 h1         1 6XN       0.088700
     51 H16          2.1400    10.2450    -4.2000 hc         1 6XN       0.046700
     52 H17          1.1960    11.7380    -4.1140 hc         1 6XN       0.046700
     53 H18          0.8040    10.3820    -3.0490 hc         1 6XN       0.046700
     54 H19          4.2920    13.1940    -3.6490 ha         1 6XN       0.137000
     55 H20          4.1940    15.6570    -3.6480 ha         1 6XN       0.147000
     56 H21          0.6160    15.5110    -1.3170 ha         1 6XN       0.147000
     57 H22          0.7130    13.0490    -1.3220 ha         1 6XN       0.137000
@<TRIPOS>BOND
     1     3     2 1
     2    16    17 ar
     3    16    15 ar
     4    17    18 ar
     5    15    14 ar
     6     4     2 1
     7     7     8 ar
     8     7     6 ar
     9     2     5 1
    10     2     1 1
    11     8    11 ar
    12    33    32 1
    13     5     6 1
    14    18    19 ar
    15     6     9 ar
    16    14    19 ar
    17    14    13 1
    18    11    12 1
    19    11    10 ar
    20    19    20 1
    21    12    13 1
    22    13    21 1
    23    32    31 ar
    24    32    34 ar
    25    31    30 ar
    26     9    10 ar
    27    20    21 2
    28    34    35 ar
    29    21    22 1
    30    30    29 ar
    31    35    29 ar
    32    22    23 1
    33    29    27 1
    34    25    24 2
    35    24    23 1
    36    24    26 1
    37    26    27 1
    38    27    28 1
    39     7    36 1
    40     8    37 1
    41     9    38 1
    42    10    39 1
    43    12    40 1
    44    12    41 1
    45    16    42 1
    46    17    43 1
    47    18    44 1
    48    22    45 1
    49    22    46 1
    50    23    47 1
    51    23    48 1
    52    26    49 1
    53    27    50 1
    54    28    51 1
    55    28    52 1
    56    28    53 1
    57    30    54 1
    58    31    55 1
    59    34    56 1
    60    35    57 1
@<TRIPOS>SUBSTRUCTURE
     1 6XN         1 TEMP              0 ****  ****    0 ROOT
