@<TRIPOS>MOLECULE
6XN
   57    60     1     0     0
SMALL
bcc


@<TRIPOS>ATOM
      1 FAC          0.0000     0.0000     0.0000 f          1 6XN      -0.196633
      2 CBI          1.3990     0.0000     0.0000 c3         1 6XN       0.756700
      3 FAD          1.8650     0.0000     1.3190 f          1 6XN      -0.196633
      4 FAE          1.8650    -1.1430    -0.6590 f          1 6XN      -0.196633
      5 OAX          1.8760     1.1660    -0.6730 os         1 6XN      -0.312900
      6 CBB          1.5110     2.3690    -0.1570 ca         1 6XN       0.149100
      7 CAN          0.7150     2.4260     0.9780 ca         1 6XN      -0.157500
      8 CAL          0.3450     3.6500     1.5010 ca         1 6XN      -0.039000
      9 CAM          1.9380     3.5430    -0.7610 ca         1 6XN      -0.157500
     10 CAK          1.5660     4.7650    -0.2340 ca         1 6XN      -0.039000
     11 CBA          0.7680     4.8180     0.8940 ca         1 6XN      -0.163300
     12 CAT          0.3630     6.1530     1.4660 c3         1 6XN       0.028600
     13 NBH          1.3620     6.5870     2.4450 na         1 6XN       0.212000
     14 CBF          1.3590     6.3090     3.7940 ca         1 6XN       0.200800
     15 NAU          0.5450     5.6280     4.5860 nb         1 6XN      -0.571000
     16 CAH          0.7790     5.5120     5.8780 ca         1 6XN       0.410200
     17 CAG          1.8890     6.0980     6.4660 ca         1 6XN      -0.242300
     18 CAQ          2.7720     6.8200     5.6860 ca         1 6XN      -0.006000
     19 CBE          2.5060     6.9310     4.3190 ca         1 6XN      -0.049900
     20 NAV          3.1350     7.5440     3.2850 nc         1 6XN      -0.508100
     21 CBD          2.4690     7.3380     2.1860 cd         1 6XN       0.221800
     22 CAS          2.8620     7.8570     0.8270 c3         1 6XN      -0.013700
     23 CAR          2.2360     9.2360     0.6080 c3         1 6XN      -0.100400
     24 CAY          2.6290     9.7550    -0.7510 c          1 6XN       0.575100
     25 OAB          3.3390     9.0890    -1.4730 o          1 6XN      -0.649100
     26 NAW          2.1900    10.9610    -1.1640 ns         1 6XN      -0.202900
     27 CBG          2.5710    11.4660    -2.4850 c3         1 6XN       0.079000
     28 CAA          1.6070    10.9180    -3.5390 c3         1 6XN      -0.014100
     29 CBC          2.5110    12.9720    -2.4840 ca         1 6XN      -0.107300
     30 CAO          3.4850    13.7030    -3.1370 ca         1 6XN      -0.084500
     31 CAI          3.4300    15.0840    -3.1360 ca         1 6XN      -0.092500
     32 CAZ          2.3990    15.7360    -2.4820 ca         1 6XN      -0.033600
     33 ClA          2.3290    17.4700    -2.4810 cl         1 6XN      -0.020400
     34 CAJ          1.4240    15.0020    -1.8280 ca         1 6XN      -0.092500
     35 CAP          1.4770    13.6220    -1.8340 ca         1 6XN      -0.084500
     36 H1           0.3840     1.5110     1.4540 ha         1 6XN       0.129000
     37 H2          -0.2780     3.6950     2.3850 ha         1 6XN       0.122000
     38 H3           2.5640     3.5010    -1.6440 ha         1 6XN       0.129000
     39 H4           1.8980     5.6810    -0.7060 ha         1 6XN       0.122000
     40 H5           0.2970     6.8830     0.6690 h1         1 6XN       0.042700
     41 H6          -0.6010     6.0600     1.9510 h1         1 6XN       0.042700
     42 H7           0.0890     4.9480     6.4930 h4         1 6XN      -0.020900
     43 H8           2.0620     5.9910     7.5290 ha         1 6XN       0.115000
     44 H9           3.6470     7.2860     6.1230 ha         1 6XN       0.115000
     45 H10          3.9410     7.9370     0.7690 hc         1 6XN       0.046700
     46 H11          2.5090     7.1750     0.0640 hc         1 6XN       0.046700
     47 H12          1.1570     9.1560     0.6660 hc         1 6XN       0.033200
     48 H13          2.5890     9.9180     1.3720 hc         1 6XN       0.033200
     49 H14          1.5890    11.5030    -0.5760 hn         1 6XN       0.181500
     50 H15          3.5800    11.1460    -2.7160 h1         1 6XN       0.062700
     51 H16          2.1400    10.2450    -4.2000 hc         1 6XN       0.013700
     52 H17          1.1960    11.7380    -4.1140 hc         1 6XN       0.013700
     53 H18          0.8040    10.3820    -3.0490 hc         1 6XN       0.013700
     54 H19          4.2920    13.1940    -3.6490 ha         1 6XN       0.110000
     55 H20          4.1940    15.6570    -3.6480 ha         1 6XN       0.116500
     56 H21          0.6160    15.5110    -1.3170 ha         1 6XN       0.116500
     57 H22          0.7130    13.0490    -1.3220 ha         1 6XN       0.110000
@<TRIPOS>BOND
     1     1     2 1   
     2     2     3 1   
     3     2     4 1   
     4     2     5 1   
     5     5     6 1   
     6     6     7 ar  
     7     6     9 ar  
     8     7     8 ar  
     9     7    36 1   
    10     8    11 ar  
    11     8    37 1   
    12     9    10 ar  
    13     9    38 1   
    14    10    11 ar  
    15    10    39 1   
    16    11    12 1   
    17    12    13 1   
    18    12    40 1   
    19    12    41 1   
    20    13    14 1   
    21    13    21 1   
    22    14    15 ar  
    23    14    19 ar  
    24    15    16 ar  
    25    16    17 ar  
    26    16    42 1   
    27    17    18 ar  
    28    17    43 1   
    29    18    19 ar  
    30    18    44 1   
    31    19    20 1   
    32    20    21 2   
    33    21    22 1   
    34    22    23 1   
    35    22    45 1   
    36    22    46 1   
    37    23    24 1   
    38    23    47 1   
    39    23    48 1   
    40    24    25 2   
    41    24    26 1   
    42    26    27 1   
    43    26    49 1   
    44    27    28 1   
    45    27    29 1   
    46    27    50 1   
    47    28    51 1   
    48    28    52 1   
    49    28    53 1   
    50    29    30 ar  
    51    29    35 ar  
    52    30    31 ar  
    53    30    54 1   
    54    31    32 ar  
    55    31    55 1   
    56    32    33 1   
    57    32    34 ar  
    58    34    35 ar  
    59    34    56 1   
    60    35    57 1   
@<TRIPOS>SUBSTRUCTURE
     1 6XN         1 TEMP              0 ****  ****    0 ROOT
