@<TRIPOS>MOLECULE
6XO
   71    72     1     0     0
SMALL
bcc


@<TRIPOS>ATOM
      1 C1           0.0000     0.0000     0.0000 ca         1 6XO      -0.114000
      2 C2           1.3820     0.0000     0.0000 ca         1 6XO      -0.117000
      3 C3           2.0740     0.0000     1.1970 ca         1 6XO      -0.076000
      4 C9           3.0490     1.5450     5.2730 c          1 6XO       0.647100
      5 C11          4.0340     2.9830     6.9760 c3         1 6XO       0.002800
      6 C14          8.0590     3.7310     7.8170 c3         1 6XO       0.127500
      7 C15          8.9030     3.1220     8.9070 c          1 6XO       0.578100
      8 C21          8.2640     5.2470     7.8000 c3         1 6XO      -0.043400
      9 C22          9.6980     5.5630     7.3720 c3         1 6XO      -0.093700
     10 C24          9.8970     5.1480     5.9130 c3         1 6XO       0.003900
     11 C27         12.2320     1.0000     8.4070 c3         1 6XO      -0.062700
     12 C30         12.8430    -1.7470     7.5930 c3         1 6XO      -0.023400
     13 C31         13.3780    -0.5450     6.8120 c3         1 6XO      -0.026400
     14 C32         13.5730     0.6360     7.7660 c3         1 6XO      -0.027400
     15 C33         11.2700     3.7050    10.9380 c          1 6XO       0.980600
     16 C4           1.3840     0.0010     2.3940 ca         1 6XO      -0.090300
     17 P12          5.8080     3.2100     6.6240 p5         1 6XO       0.466500
     18 O20          6.3310     2.0120     5.9300 o          1 6XO      -0.638500
     19 O19          6.0080     4.5040     5.6850 o          1 6XO      -0.638500
     20 N13          6.6430     3.4310     8.0680 n7         1 6XO      -0.583300
     21 C23          9.9530     7.0650     7.5140 c3         1 6XO       0.003900
     22 C17         11.0690     2.6240     9.9070 c3         1 6XO      -0.101300
     23 C26         12.4270     2.1800     9.3610 c3         1 6XO      -0.021400
     24 C29         11.5030    -1.3840     8.2330 c3         1 6XO      -0.026400
     25 C28         11.6970    -0.2030     9.1870 c3         1 6XO      -0.027400
     26 C5           0.0010     0.0010     2.3950 ca         1 6XO      -0.076000
     27 C6          -0.6910     0.0060     1.1980 ca         1 6XO      -0.117000
     28 O8           2.3810     1.3690     4.1170 os         1 6XO      -0.439900
     29 O18          3.4190     0.5820     5.9140 o          1 6XO      -0.665000
     30 N10          3.3070     2.7910     5.7190 ns         1 6XO      -0.057900
     31 H1          -0.5420     0.0020    -0.9380 ha         1 6XO       0.089000
     32 H2           1.9240    -0.0030    -0.9380 ha         1 6XO       0.093000
     33 H3           3.1580    -0.0000     1.1960 ha         1 6XO       0.111500
     34 H6           3.9000     2.1120     7.6070 h1         1 6XO       0.030200
     35 H7           3.6520     3.8590     7.4850 h1         1 6XO       0.030200
     36 H8           8.3520     3.3160     6.8600 h1         1 6XO       0.046700
     37 H9           8.0870     5.6470     8.7920 hc         1 6XO       0.042700
     38 H10          7.5700     5.6970     7.1000 hc         1 6XO       0.042700
     39 H11         10.3920     5.0180     8.0000 hc         1 6XO       0.063700
     40 H12          9.1620     5.6460     5.2920 hc         1 6XO      -0.004800
     41 H13          9.7780     4.0750     5.8230 hc         1 6XO      -0.004800
     42 H14         10.8920     5.4290     5.5900 hc         1 6XO      -0.004800
     43 H15         11.5240     1.2690     7.6320 hc         1 6XO       0.036700
     44 H16         12.7040    -2.5820     6.9160 hc         1 6XO      -0.001800
     45 H17         13.5510    -2.0170     8.3670 hc         1 6XO      -0.001800
     46 H18         12.6680    -0.2710     6.0410 hc         1 6XO       0.007450
     47 H19         14.3280    -0.8030     6.3600 hc         1 6XO       0.007450
     48 H20         14.2790     0.3600     8.5400 hc         1 6XO       0.018700
     49 H21         13.9500     1.4870     7.2120 hc         1 6XO       0.018700
     50 H23          6.3770     2.9150     8.8830 hn         1 6XO       0.302800
     51 H24          9.7200     7.3770     8.5250 hc         1 6XO      -0.004800
     52 H25         10.9940     7.2760     7.3020 hc         1 6XO      -0.004800
     53 H26          9.3260     7.6060     6.8150 hc         1 6XO      -0.004800
     54 H28         10.5690     1.7780    10.3630 h1         1 6XO       0.057700
     55 H30         13.0650     1.8790    10.1820 hc         1 6XO       0.024200
     56 H31         12.8880     3.0030     8.8280 hc         1 6XO       0.024200
     57 H32         10.7970    -1.1090     7.4590 hc         1 6XO       0.007450
     58 H33         11.1260    -2.2350     8.7870 hc         1 6XO       0.007450
     59 H34         12.4080    -0.4770     9.9580 hc         1 6XO       0.018700
     60 H35         10.7470     0.0540     9.6390 hc         1 6XO       0.018700
     61 H36         -0.5400     0.0040     3.3330 ha         1 6XO       0.111500
     62 H37         -1.7740     0.0060     1.1990 ha         1 6XO       0.093000
     63 H38          2.9720     3.5840     5.2090 hn         1 6XO       0.151500
     64 C7           2.1380     0.0000     3.6980 c3         1 6XO       0.294700
     65 O25          8.3720     2.6120     9.8710 o          1 6XO      -0.682100
     66 O35         11.9970     3.4550    12.0380 o          1 6XO      -0.899800
     67 H4           3.0840    -0.5110     3.5680 h1         1 6XO       0.012200
     68 H5           1.5530    -0.5100     4.4540 h1         1 6XO       0.012200
     69 N16         10.2470     3.1430     8.8100 ns         1 6XO      -0.182900
     70 O34         10.7780     4.7960    10.7730 o          1 6XO      -0.899800
     71 H27         10.6830     3.4680     7.9700 hn         1 6XO       0.175500
@<TRIPOS>BOND
     1     1     2 ar  
     2     1    27 ar  
     3     1    31 1   
     4     2     3 ar  
     5     2    32 1   
     6     3    16 ar  
     7     3    33 1   
     8     4    28 1   
     9     4    29 2   
    10     4    30 1   
    11     5    17 1   
    12     5    30 1   
    13     5    34 1   
    14     5    35 1   
    15     6     7 1   
    16     6     8 1   
    17     6    20 1   
    18     6    36 1   
    19     7    65 2   
    20     7    69 1   
    21     8     9 1   
    22     8    37 1   
    23     8    38 1   
    24     9    10 1   
    25     9    21 1   
    26     9    39 1   
    27    10    40 1   
    28    10    41 1   
    29    10    42 1   
    30    11    14 1   
    31    11    23 1   
    32    11    25 1   
    33    11    43 1   
    34    12    13 1   
    35    12    24 1   
    36    12    44 1   
    37    12    45 1   
    38    13    14 1   
    39    13    46 1   
    40    13    47 1   
    41    14    48 1   
    42    14    49 1   
    43    15    22 1   
    44    15    66 1   
    45    15    70 1   
    46    16    26 ar  
    47    16    64 1   
    48    17    18 1   
    49    17    19 1   
    50    17    20 1   
    51    20    50 1   
    52    21    51 1   
    53    21    52 1   
    54    21    53 1   
    55    22    23 1   
    56    22    54 1   
    57    22    69 1   
    58    23    55 1   
    59    23    56 1   
    60    24    25 1   
    61    24    57 1   
    62    24    58 1   
    63    25    59 1   
    64    25    60 1   
    65    26    27 ar  
    66    26    61 1   
    67    27    62 1   
    68    28    64 1   
    69    30    63 1   
    70    64    67 1   
    71    64    68 1   
    72    69    71 1   
@<TRIPOS>SUBSTRUCTURE
     1 6XO         1 TEMP              0 ****  ****    0 ROOT
