@<TRIPOS>MOLECULE
molecule
   71    72     1     0     0
SMALL
bcc


@<TRIPOS>ATOM
      1 C1           0.0000     0.0000     0.0000 ca         1 6XO      -0.136000
      2 C2           1.3820     0.0000     0.0000 ca         1 6XO      -0.141500
      3 C3           2.0740     0.0000     1.1970 ca         1 6XO      -0.103000
      4 C9           3.0490     1.5450     5.2730 c          1 6XO       0.742100
      5 C11          4.0340     2.9830     6.9760 c3         1 6XO      -0.065200
      6 C14          8.0590     3.7310     7.8170 c3         1 6XO       0.170500
      7 C15          8.9030     3.1220     8.9070 c          1 6XO       0.665100
      8 C21          8.2640     5.2470     7.8000 c3         1 6XO      -0.077400
      9 C22          9.6980     5.5630     7.3720 c3         1 6XO      -0.095700
     10 C24          9.8970     5.1480     5.9130 c3         1 6XO      -0.085600
     11 C27         12.2320     1.0000     8.4070 c3         1 6XO      -0.076700
     12 C30         12.8430    -1.7470     7.5930 c3         1 6XO      -0.077400
     13 C31         13.3780    -0.5450     6.8120 c3         1 6XO      -0.081400
     14 C32         13.5730     0.6360     7.7660 c3         1 6XO      -0.074400
     15 C33         11.2700     3.7050    10.9380 c          1 6XO       0.888600
     16 C4           1.3840     0.0010     2.3940 ca         1 6XO      -0.078300
     17 P12          5.8080     3.2100     6.6240 p5         1 6XO       1.122500
     18 O20          6.3310     2.0120     5.9300 o          1 6XO      -0.816000
     19 O19          6.0080     4.5040     5.6850 o          1 6XO      -0.816000
     20 N13          6.6430     3.4310     8.0680 n7         1 6XO      -0.931300
     21 C23          9.9530     7.0650     7.5140 c3         1 6XO      -0.085600
     22 C17         11.0690     2.6240     9.9070 c3         1 6XO       0.004700
     23 C26         12.4270     2.1800     9.3610 c3         1 6XO      -0.072400
     24 C29         11.5030    -1.3840     8.2330 c3         1 6XO      -0.081400
     25 C28         11.6970    -0.2030     9.1870 c3         1 6XO      -0.074400
     26 C5           0.0010     0.0010     2.3950 ca         1 6XO      -0.103000
     27 C6          -0.6910     0.0060     1.1980 ca         1 6XO      -0.141500
     28 O8           2.3810     1.3690     4.1170 os         1 6XO      -0.451900
     29 O18          3.4190     0.5820     5.9140 o          1 6XO      -0.610000
     30 N10          3.3070     2.7910     5.7190 ns         1 6XO      -0.514900
     31 H1          -0.5420     0.0020    -0.9380 ha         1 6XO       0.115000
     32 H2           1.9240    -0.0030    -0.9380 ha         1 6XO       0.120000
     33 H3           3.1580    -0.0000     1.1960 ha         1 6XO       0.139500
     34 H6           3.9000     2.1120     7.6070 h1         1 6XO       0.054200
     35 H7           3.6520     3.8590     7.4850 h1         1 6XO       0.054200
     36 H8           8.3520     3.3160     6.8600 h1         1 6XO       0.068700
     37 H9           8.0870     5.6470     8.7920 hc         1 6XO       0.066700
     38 H10          7.5700     5.6970     7.1000 hc         1 6XO       0.066700
     39 H11         10.3920     5.0180     8.0000 hc         1 6XO       0.081700
     40 H12          9.1620     5.6460     5.2920 hc         1 6XO       0.024533
     41 H13          9.7780     4.0750     5.8230 hc         1 6XO       0.024533
     42 H14         10.8920     5.4290     5.5900 hc         1 6XO       0.024533
     43 H15         11.5240     1.2690     7.6320 hc         1 6XO       0.058700
     44 H16         12.7040    -2.5820     6.9160 hc         1 6XO       0.022700
     45 H17         13.5510    -2.0170     8.3670 hc         1 6XO       0.022700
     46 H18         12.6680    -0.2710     6.0410 hc         1 6XO       0.033450
     47 H19         14.3280    -0.8030     6.3600 hc         1 6XO       0.033450
     48 H20         14.2790     0.3600     8.5400 hc         1 6XO       0.042200
     49 H21         13.9500     1.4870     7.2120 hc         1 6XO       0.042200
     50 H23          6.3770     2.9150     8.8830 hn         1 6XO       0.408800
     51 H24          9.7200     7.3770     8.5250 hc         1 6XO       0.024533
     52 H25         10.9940     7.2760     7.3020 hc         1 6XO       0.024533
     53 H26          9.3260     7.6060     6.8150 hc         1 6XO       0.024533
     54 H28         10.5690     1.7780    10.3630 h1         1 6XO       0.070700
     55 H30         13.0650     1.8790    10.1820 hc         1 6XO       0.048700
     56 H31         12.8880     3.0030     8.8280 hc         1 6XO       0.048700
     57 H32         10.7970    -1.1090     7.4590 hc         1 6XO       0.033450
     58 H33         11.1260    -2.2350     8.7870 hc         1 6XO       0.033450
     59 H34         12.4080    -0.4770     9.9580 hc         1 6XO       0.042200
     60 H35         10.7470     0.0540     9.6390 hc         1 6XO       0.042200
     61 H36         -0.5400     0.0040     3.3330 ha         1 6XO       0.139500
     62 H37         -1.7740     0.0060     1.1990 ha         1 6XO       0.120000
     63 H38          2.9720     3.5840     5.2090 hn         1 6XO       0.318500
     64 C7           2.1380     0.0000     3.6980 c3         1 6XO       0.214700
     65 O25          8.3720     2.6120     9.8710 o          1 6XO      -0.642100
     66 O35         11.9970     3.4550    12.0380 o          1 6XO      -0.850300
     67 H4           3.0840    -0.5110     3.5680 h1         1 6XO       0.053700
     68 H5           1.5530    -0.5100     4.4540 h1         1 6XO       0.053700
     69 N16         10.2470     3.1430     8.8100 ns         1 6XO      -0.563900
     70 O34         10.7780     4.7960    10.7730 o          1 6XO      -0.850300
     71 H27         10.6830     3.4680     7.9700 hn         1 6XO       0.305500
@<TRIPOS>BOND
     1    27    26 ar  
     2    27     1 ar  
     3    26    16 ar  
     4     1     2 ar  
     5    16    64 1   
     6    16     3 ar  
     7     2     3 ar  
     8    64    28 1   
     9    28     4 1   
    10     4    29 2   
    11     4    30 1   
    12    30     5 1   
    13     5    17 1   
    14    18    17 1   
    15    19    17 1   
    16    17    20 1   
    17    70    15 1   
    18    66    15 1   
    19    15    22 1   
    20    20     6 1   
    21    22    69 1   
    22    22    23 1   
    23    69     7 1   
    24     7    65 2   
    25     7     6 1   
    26     6     8 1   
    27    25    24 1   
    28    25    11 1   
    29    24    12 1   
    30    23    11 1   
    31    11    14 1   
    32     8     9 1   
    33    12    13 1   
    34    21     9 1   
    35     9    10 1   
    36    14    13 1   
    37     1    31 1   
    38     2    32 1   
    39     3    33 1   
    40    64    67 1   
    41    64    68 1   
    42     5    34 1   
    43     5    35 1   
    44     6    36 1   
    45     8    37 1   
    46     8    38 1   
    47     9    39 1   
    48    10    40 1   
    49    10    41 1   
    50    10    42 1   
    51    11    43 1   
    52    12    44 1   
    53    12    45 1   
    54    13    46 1   
    55    13    47 1   
    56    14    48 1   
    57    14    49 1   
    58    20    50 1   
    59    21    51 1   
    60    21    52 1   
    61    21    53 1   
    62    69    71 1   
    63    22    54 1   
    64    23    55 1   
    65    23    56 1   
    66    24    57 1   
    67    24    58 1   
    68    25    59 1   
    69    25    60 1   
    70    26    61 1   
    71    27    62 1   
    72    30    63 1   
@<TRIPOS>SUBSTRUCTURE
     1 6XO         1 TEMP              0 ****  ****    0 ROOT
