@<TRIPOS>MOLECULE
6XP
   43    45     1     0     0
SMALL
bcc


@<TRIPOS>ATOM
      1 C50          0.0000     0.0000     0.0000 c3         1 6XP      -0.001100
      2 C2           2.8270     1.0370     1.8720 ca         1 6XP      -0.060000
      3 C6           1.6970    -1.0370     2.2710 ca         1 6XP      -0.060000
      4 C3           3.2880     1.0400     3.1740 ca         1 6XP      -0.139000
      5 C5           2.1550    -1.0400     3.5730 ca         1 6XP      -0.139000
      6 C19          2.0330    -1.2300    -0.7110 c          1 6XP       0.580100
      7 C20          1.5300     0.0000     0.0000 c3         1 6XP      -0.058400
      8 N13         -0.1000    -1.3520    -4.7760 ns         1 6XP      -0.008100
      9 N17          2.1640    -2.5570    -2.6460 n7         1 6XP      -0.377200
     10 N18          1.7080    -1.4420    -2.0020 ns         1 6XP      -0.160300
     11 O21          2.7300    -2.0280    -0.1210 o          1 6XP      -0.614100
     12 C1           2.0320     0.0000     1.4210 ca         1 6XP      -0.091300
     13 C4           2.9530    -0.0000     4.0290 ca         1 6XP       0.125100
     14 C8           2.4670     0.9570    -6.2340 ca         1 6XP      -0.055000
     15 C7           3.5890     0.2620    -5.8200 ca         1 6XP      -0.119000
     16 C11          2.1840    -1.3770    -4.7910 ca         1 6XP      -0.157300
     17 C9           1.2060     0.4910    -5.9290 ca         1 6XP      -0.107300
     18 C15          1.6920    -2.5920    -4.0370 c3         1 6XP       0.096800
     19 C10          3.4440    -0.9100    -5.0970 ca         1 6XP       0.030400
     20 C12          1.0510    -0.6870    -5.2010 ca         1 6XP      -0.099400
     21 C14          0.1850    -2.4710    -4.0900 c          1 6XP       0.564500
     22 H501        -0.3610     0.1490     1.0100 hc         1 6XP       0.010367
     23 H502        -0.3610     0.8010    -0.6340 hc         1 6XP       0.010367
     24 H503        -0.3610    -0.9500    -0.3760 hc         1 6XP       0.010367
     25 H20          1.8910     0.8850    -0.5100 hc         1 6XP       0.039700
     26 H2           3.0880     1.8490     1.2040 ha         1 6XP       0.106500
     27 H3           3.9100     1.8530     3.5270 ha         1 6XP       0.113000
     28 H6           1.0740    -1.8490     1.9140 ha         1 6XP       0.106500
     29 H5           1.8920    -1.8540     4.2390 ha         1 6XP       0.113000
     30 H18          1.1360    -0.7810    -2.4890 hn         1 6XP       0.181500
     31 H241        -0.5770     1.5810    -5.5200 hc         1 6XP       0.010367
     32 H242        -0.6270     0.6210    -7.0050 hc         1 6XP       0.010367
     33 H243         0.3040     2.1240    -6.9550 hc         1 6XP       0.010367
     34 H13         -1.0300    -1.0330    -4.9620 hn         1 6XP       0.181500
     35 H17          1.8450    -3.3750    -2.1650 hn         1 6XP       0.281800
     36 H22          2.7930     0.4600     5.8600 ho         1 6XP       0.399000
     37 H8           2.5810     1.8740    -6.8000 ha         1 6XP       0.113000
     38 H7           4.5770     0.6330    -6.0620 ha         1 6XP       0.123000
     39 H15          2.0160    -3.4990    -4.5320 h1         1 6XP       0.082700
     40 O22          3.4050    -0.0000     5.3110 oh         1 6XP      -0.500100
     41 O16         -0.6170    -3.2420    -3.6040 o          1 6XP      -0.630500
     42 Cl2          4.8470    -1.7890    -4.5750 cl         1 6XP       0.013600
     43 C24         -0.0090     1.2580    -6.3840 c3         1 6XP       0.064200
@<TRIPOS>BOND
     1     1     7 1   
     2     1    22 1   
     3     1    23 1   
     4     1    24 1   
     5     2     4 ar  
     6     2    12 ar  
     7     2    26 1   
     8     3     5 ar  
     9     3    12 ar  
    10     3    28 1   
    11     4    13 ar  
    12     4    27 1   
    13     5    13 ar  
    14     5    29 1   
    15     6     7 1   
    16     6    10 1   
    17     6    11 2   
    18     7    12 1   
    19     7    25 1   
    20     8    20 1   
    21     8    21 1   
    22     8    34 1   
    23     9    10 1   
    24     9    18 1   
    25     9    35 1   
    26    10    30 1   
    27    13    40 1   
    28    14    15 ar  
    29    14    17 ar  
    30    14    37 1   
    31    15    19 ar  
    32    15    38 1   
    33    16    18 1   
    34    16    19 ar  
    35    16    20 ar  
    36    17    20 ar  
    37    17    43 1   
    38    18    21 1   
    39    18    39 1   
    40    19    42 1   
    41    21    41 2   
    42    31    43 1   
    43    32    43 1   
    44    33    43 1   
    45    36    40 1   
@<TRIPOS>SUBSTRUCTURE
     1 6XP         1 TEMP              0 ****  ****    0 ROOT
