@<TRIPOS>MOLECULE
molecule
   43    45     1     0     0
SMALL
bcc


@<TRIPOS>ATOM
      1 C50          0.0000     0.0000     0.0000 c3         1 6XP      -0.093100
      2 C2           2.8270     1.0370     1.8720 ca         1 6XP      -0.092000
      3 C6           1.6970    -1.0370     2.2710 ca         1 6XP      -0.092000
      4 C3           3.2880     1.0400     3.1740 ca         1 6XP      -0.153500
      5 C5           2.1550    -1.0400     3.5730 ca         1 6XP      -0.153500
      6 C19          2.0330    -1.2300    -0.7110 c          1 6XP       0.665100
      7 C20          1.5300     0.0000     0.0000 c3         1 6XP      -0.094400
      8 N13         -0.1000    -1.3520    -4.7760 ns         1 6XP      -0.463100
      9 N17          2.1640    -2.5570    -2.6460 n7         1 6XP      -0.489200
     10 N18          1.7080    -1.4420    -2.0020 ns         1 6XP      -0.474300
     11 O21          2.7300    -2.0280    -0.1210 o          1 6XP      -0.574100
     12 C1           2.0320     0.0000     1.4210 ca         1 6XP      -0.079300
     13 C4           2.9530    -0.0000     4.0290 ca         1 6XP       0.108100
     14 C8           2.4670     0.9570    -6.2340 ca         1 6XP      -0.082000
     15 C7           3.5890     0.2620    -5.8200 ca         1 6XP      -0.146000
     16 C11          2.1840    -1.3770    -4.7910 ca         1 6XP      -0.140300
     17 C9           1.2060     0.4910    -5.9290 ca         1 6XP      -0.112300
     18 C15          1.6920    -2.5920    -4.0370 c3         1 6XP       0.116800
     19 C10          3.4440    -0.9100    -5.0970 ca         1 6XP       0.096400
     20 C12          1.0510    -0.6870    -5.2010 ca         1 6XP       0.050600
     21 C14          0.1850    -2.4710    -4.0900 c          1 6XP       0.665500
     22 H501        -0.3610     0.1490     1.0100 hc         1 6XP       0.044700
     23 H502        -0.3610     0.8010    -0.6340 hc         1 6XP       0.044700
     24 H503        -0.3610    -0.9500    -0.3760 hc         1 6XP       0.044700
     25 H20          1.8910     0.8850    -0.5100 hc         1 6XP       0.071700
     26 H2           3.0880     1.8490     1.2040 ha         1 6XP       0.134500
     27 H3           3.9100     1.8530     3.5270 ha         1 6XP       0.140000
     28 H6           1.0740    -1.8490     1.9140 ha         1 6XP       0.134500
     29 H5           1.8920    -1.8540     4.2390 ha         1 6XP       0.140000
     30 H18          1.1360    -0.7810    -2.4890 hn         1 6XP       0.319500
     31 H241        -0.5770     1.5810    -5.5200 hc         1 6XP       0.046700
     32 H242        -0.6270     0.6210    -7.0050 hc         1 6XP       0.046700
     33 H243         0.3040     2.1240    -6.9550 hc         1 6XP       0.046700
     34 H13         -1.0300    -1.0330    -4.9620 hn         1 6XP       0.340500
     35 H17          1.8450    -3.3750    -2.1650 hn         1 6XP       0.377800
     36 H22          2.7930     0.4600     5.8600 ho         1 6XP       0.416000
     37 H8           2.5810     1.8740    -6.8000 ha         1 6XP       0.145000
     38 H7           4.5770     0.6330    -6.0620 ha         1 6XP       0.153000
     39 H15          2.0160    -3.4990    -4.5320 h1         1 6XP       0.124700
     40 O22          3.4050    -0.0000     5.3110 oh         1 6XP      -0.522100
     41 O16         -0.6170    -3.2420    -3.6040 o          1 6XP      -0.590500
     42 Cl2          4.8470    -1.7890    -4.5750 cl         1 6XP      -0.073400
     43 C24         -0.0090     1.2580    -6.3840 c3         1 6XP      -0.048800
@<TRIPOS>BOND
     1     1     7 1   
     2     2     4 ar  
     3     2    12 ar  
     4     3     5 ar  
     5     3    12 ar  
     6     4    13 ar  
     7     5    13 ar  
     8     6     7 1   
     9     6    10 1   
    10     6    11 2   
    11    43    17 1   
    12     7    12 1   
    13     8    20 1   
    14     8    21 1   
    15     9    10 1   
    16     9    18 1   
    17    41    21 2   
    18    40    13 1   
    19    42    19 1   
    20    14    15 ar  
    21    14    17 ar  
    22    15    19 ar  
    23    16    18 1   
    24    16    19 ar  
    25    16    20 ar  
    26    17    20 ar  
    27    18    21 1   
    28     1    22 1   
    29     1    23 1   
    30     1    24 1   
    31     7    25 1   
    32     2    26 1   
    33     4    27 1   
    34     3    28 1   
    35     5    29 1   
    36    10    30 1   
    37    43    31 1   
    38    43    32 1   
    39    43    33 1   
    40     8    34 1   
    41     9    35 1   
    42    40    36 1   
    43    14    37 1   
    44    15    38 1   
    45    18    39 1   
@<TRIPOS>SUBSTRUCTURE
     1 6XP         1 TEMP              0 ****  ****    0 ROOT
