@<TRIPOS>MOLECULE
molecule
   29    31     1     0     0
SMALL
bcc


@<TRIPOS>ATOM
      1 C3           0.0000     0.0000     0.0000 c3         1 6XR       0.026700
      2 C5           1.2520    -0.0000     2.3480 ce         1 6XR       0.405200
      3 C1           2.0310     1.2270    -0.7220 c          1 6XR       0.902600
      4 C2           1.5360     0.0000     0.0000 c3         1 6XR       0.005500
      5 C12          0.5000     0.0000     7.2120 ca         1 6XR      -0.118500
      6 C13         -0.8950    -0.0000     7.1680 ca         1 6XR      -0.065000
      7 S4          -0.4190     0.0000     1.7730 ss         1 6XR      -0.398300
      8 N6           2.0610     0.0000     1.3480 n2         1 6XR      -0.546900
      9 C7           1.6610    -0.0010     3.7670 cc         1 6XR       0.376000
     10 C8           2.9560    -0.0020     4.1470 cd         1 6XR      -0.174400
     11 S9           3.0390    -0.0020     5.8550 ss         1 6XR      -0.172300
     12 C10          1.2830    -0.0010     5.9580 cd         1 6XR       0.485900
     13 N11          0.7820     0.0050     4.7580 nc         1 6XR      -0.646000
     14 C14         -1.6200     0.0010     8.3410 ca         1 6XR      -0.156000
     15 C15         -0.9700     0.0020     9.5630 ca         1 6XR      -0.107000
     16 C16          0.4100     0.0020     9.6200 ca         1 6XR      -0.196000
     17 C17          1.1530     0.0060     8.4500 ca         1 6XR       0.117100
     18 O18          2.5100     0.0060     8.5040 oh         1 6XR      -0.506100
     19 O19          2.4000     2.1900    -0.0930 o          1 6XR      -0.821800
     20 O20          2.0600     1.2500    -2.0640 o          1 6XR      -0.821800
     21 H3          -0.3810     0.8930    -0.4810 h1         1 6XR       0.074200
     22 H31         -0.3800    -0.8930    -0.4810 h1         1 6XR       0.074200
     23 H2           1.8890    -0.8860    -0.5150 h1         1 6XR       0.084700
     24 H13         -1.4080    -0.0010     6.2130 ha         1 6XR       0.169000
     25 H81          3.8070    -0.0020     3.4760 h4         1 6XR       0.206000
     26 H14         -2.7030     0.0000     8.3050 ha         1 6XR       0.132000
     27 H15         -1.5470     0.0000    10.4800 ha         1 6XR       0.124000
     28 H16          0.9130     0.0040    10.5790 ha         1 6XR       0.129000
     29 HO18         2.8010     0.6710     9.1060 ho         1 6XR       0.421000
@<TRIPOS>BOND
     1    16    15 ar  
     2    16    17 ar  
     3    18    17 1   
     4    15    14 ar  
     5    17     5 ar  
     6    14     6 ar  
     7     5     6 ar  
     8     5    12 1   
     9     7     1 1   
    10     7     2 1   
    11    13    12 2   
    12    13     9 1   
    13     1     4 1   
    14    12    11 1   
    15     2     9 1   
    16     2     8 2   
    17     9    10 2   
    18     4     8 1   
    19     4     3 1   
    20    11    10 1   
    21    19     3 1   
    22     3    20 1   
    23     1    21 1   
    24     1    22 1   
    25     4    23 1   
    26     6    24 1   
    27    10    25 1   
    28    14    26 1   
    29    15    27 1   
    30    16    28 1   
    31    18    29 1   
@<TRIPOS>SUBSTRUCTURE
     1 6XR         1 TEMP              0 ****  ****    0 ROOT
