@<TRIPOS>MOLECULE
6XR
   29    31     1     0     0
SMALL
bcc


@<TRIPOS>ATOM
      1 C3           0.0000     0.0000     0.0000 c3         1 6XR       0.104700
      2 C5           1.2520    -0.0000     2.3480 ce         1 6XR       0.343200
      3 C1           2.0310     1.2270    -0.7220 c          1 6XR       0.984600
      4 C2           1.5360     0.0000     0.0000 c3         1 6XR      -0.010500
      5 C12          0.5000     0.0000     7.2120 ca         1 6XR      -0.131500
      6 C13         -0.8950    -0.0000     7.1680 ca         1 6XR      -0.039000
      7 S4          -0.4190     0.0000     1.7730 ss         1 6XR      -0.430300
      8 N6           2.0610     0.0000     1.3480 n2         1 6XR      -0.423900
      9 C7           1.6610    -0.0010     3.7670 cc         1 6XR       0.342000
     10 C8           2.9560    -0.0020     4.1470 cd         1 6XR      -0.102400
     11 S9           3.0390    -0.0020     5.8550 ss         1 6XR      -0.303300
     12 C10          1.2830    -0.0010     5.9580 cd         1 6XR       0.486900
     13 N11          0.7820     0.0050     4.7580 nc         1 6XR      -0.522000
     14 C14         -1.6200     0.0010     8.3410 ca         1 6XR      -0.137000
     15 C15         -0.9700     0.0020     9.5630 ca         1 6XR      -0.074000
     16 C16          0.4100     0.0020     9.6200 ca         1 6XR      -0.185000
     17 C17          1.1530     0.0060     8.4500 ca         1 6XR       0.139100
     18 O18          2.5100     0.0060     8.5040 oh         1 6XR      -0.474100
     19 O19          2.4000     2.1900    -0.0930 o          1 6XR      -0.871300
     20 O20          2.0600     1.2500    -2.0640 o          1 6XR      -0.871300
     21 H3          -0.3810     0.8930    -0.4810 h1         1 6XR       0.051700
     22 H31         -0.3800    -0.8930    -0.4810 h1         1 6XR       0.051700
     23 H2           1.8890    -0.8860    -0.5150 h1         1 6XR       0.054700
     24 H13         -1.4080    -0.0010     6.2130 ha         1 6XR       0.134000
     25 H81          3.8070    -0.0020     3.4760 h4         1 6XR       0.181000
     26 H14         -2.7030     0.0000     8.3050 ha         1 6XR       0.104000
     27 H15         -1.5470     0.0000    10.4800 ha         1 6XR       0.095000
     28 H16          0.9130     0.0040    10.5790 ha         1 6XR       0.106000
     29 HO18         2.8010     0.6710     9.1060 ho         1 6XR       0.400000
@<TRIPOS>BOND
     1     1     4 1   
     2     1     7 1   
     3     1    21 1   
     4     1    22 1   
     5     2     7 1   
     6     2     8 2   
     7     2     9 1   
     8     3     4 1   
     9     3    19 1   
    10     3    20 1   
    11     4     8 1   
    12     4    23 1   
    13     5     6 ar  
    14     5    12 1   
    15     5    17 ar  
    16     6    14 ar  
    17     6    24 1   
    18     9    10 2   
    19     9    13 1   
    20    10    11 1   
    21    10    25 1   
    22    11    12 1   
    23    12    13 2   
    24    14    15 ar  
    25    14    26 1   
    26    15    16 ar  
    27    15    27 1   
    28    16    17 ar  
    29    16    28 1   
    30    17    18 1   
    31    18    29 1   
@<TRIPOS>SUBSTRUCTURE
     1 6XR         1 TEMP              0 ****  ****    0 ROOT
