@<TRIPOS>MOLECULE
6XS
   67    70     1     0     0
SMALL
bcc


@<TRIPOS>ATOM
      1 C33          0.0000     0.0000     0.0000 cc         1 6XS      -0.031000
      2 C32          1.3740     0.0000     0.0000 cc         1 6XS      -0.147000
      3 C31          1.9420     0.0000     1.2130 cd         1 6XS       0.035300
      4 Cl3          3.6550     0.0010     1.4980 cl         1 6XS       0.066600
      5 S30          0.7580     0.0010     2.4400 ss         1 6XS      -0.190800
      6 C29         -0.5410     0.0000     1.2560 cd         1 6XS      -0.088700
      7 C28         -1.9720    -0.0000     1.5640 c          1 6XS       0.637700
      8 O39         -2.7890    -0.0000     0.6610 o          1 6XS      -0.647100
      9 N27         -2.3860     0.0010     2.8470 ns         1 6XS      -0.199900
     10 C26         -3.8180     0.0010     3.1550 c3         1 6XS       0.049000
     11 C17         -4.0130     0.0010     4.6730 c3         1 6XS       0.103500
     12 C18         -5.4810    -0.1100     4.9900 c          1 6XS       0.567100
     13 O38         -5.9620    -1.1880     5.2710 o          1 6XS      -0.649100
     14 N19         -6.2620     0.9880     4.9620 n          1 6XS      -0.146800
     15 C20         -7.7160     0.8870     5.1620 c3         1 6XS       0.044500
     16 C21         -8.4170     1.6240     4.0160 c3         1 6XS       0.137800
     17 N22         -7.8960     2.9950     3.9290 n3         1 6XS      -0.544600
     18 C25         -8.6620     3.7880     2.9580 c3         1 6XS       0.190100
     19 C23         -6.4640     3.0010     3.6020 c3         1 6XS       0.137800
     20 C24         -5.6820     2.3210     4.7360 c3         1 6XS       0.044500
     21 N16         -3.3000    -1.1370     5.2570 n7         1 6XS      -0.557100
     22 S15         -2.5500    -0.9800     6.7250 sy         1 6XS       1.041200
     23 O36         -1.9760    -2.2450     7.0210 o          1 6XS      -0.575300
     24 O37         -1.7930     0.2210     6.6630 o          1 6XS      -0.575300
     25 C9          -3.8100    -0.7120     7.9270 ca         1 6XS      -0.141500
     26 C8          -4.7360    -1.7050     8.1900 ca         1 6XS       0.063400
     27 Cl4         -4.6560    -3.2150     7.3370 cl         1 6XS       0.048600
     28 C10         -3.8680     0.4880     8.6110 ca         1 6XS      -0.018000
     29 C11         -4.8570     0.7030     9.5560 ca         1 6XS       0.074900
     30 F13         -4.9120     1.8770    10.2220 f          1 6XS      -0.121900
     31 C12         -5.7890    -0.2850     9.8200 ca         1 6XS      -0.056000
     32 C7          -5.7290    -1.4940     9.1390 ca         1 6XS      -0.066400
     33 N3          -6.6680    -2.4960     9.4060 n          1 6XS      -0.028000
     34 C2          -7.8970    -2.5090     8.6230 c3         1 6XS       0.044000
     35 C1          -8.5650    -3.8820     8.6970 c3         1 6XS      -0.036400
     36 C6          -8.6820    -4.2920    10.1700 c3         1 6XS      -0.032400
     37 C5          -7.2740    -4.5350    10.7180 c3         1 6XS      -0.084400
     38 C4          -6.3790    -3.3840    10.3590 c          1 6XS       0.617500
     39 O35         -5.3400    -3.2530    10.9700 o          1 6XS      -0.677500
     40 H33         -0.5960    -0.0000    -0.9050 ha         1 6XS       0.141000
     41 H32          1.9550    -0.0000    -0.9140 ha         1 6XS       0.133000
     42 H27         -1.7140     0.0310     3.5890 hn         1 6XS       0.196500
     43 H261        -4.2790     0.8850     2.7320 h1         1 6XS       0.036700
     44 H262        -4.2790    -0.8840     2.7320 h1         1 6XS       0.036700
     45 H17         -3.6230     0.9230     5.0870 h1         1 6XS       0.063700
     46 H16         -3.2660    -2.0100     4.7690 hn         1 6XS       0.366800
     47 H201        -7.9860     1.3430     6.1060 h1         1 6XS       0.036450
     48 H202        -8.0120    -0.1560     5.1570 h1         1 6XS       0.036450
     49 H241        -5.7640     2.9110     5.6410 h1         1 6XS       0.036450
     50 H242        -4.6410     2.2210     4.4520 h1         1 6XS       0.036450
     51 H211        -9.4830     1.6550     4.2070 h1         1 6XS       0.019450
     52 H212        -8.2260     1.1060     3.0840 h1         1 6XS       0.019450
     53 H251        -9.7070     3.7980     3.2430 h1         1 6XS       0.003367
     54 H252        -8.5610     3.3490     1.9730 h1         1 6XS       0.003367
     55 H253        -8.2820     4.8030     2.9420 h1         1 6XS       0.003367
     56 H231        -6.1240     4.0240     3.4930 h1         1 6XS       0.019450
     57 H232        -6.3030     2.4610     2.6780 h1         1 6XS       0.019450
     58 H10         -3.1280     1.2560     8.4190 ha         1 6XS       0.144000
     59 H12         -6.5620    -0.1170    10.5600 ha         1 6XS       0.126000
     60 H21C        -8.5760    -1.7620     9.0140 h1         1 6XS       0.024200
     61 H22C        -7.6630    -2.2820     7.5900 h1         1 6XS       0.024200
     62 H11C        -7.9610    -4.6080     8.1650 hc         1 6XS       0.027200
     63 H12C        -9.5520    -3.8290     8.2550 hc         1 6XS       0.027200
     64 H61C        -9.1590    -3.4970    10.7310 hc         1 6XS       0.021200
     65 H62C        -9.2650    -5.2020    10.2490 hc         1 6XS       0.021200
     66 H51C        -7.3210    -4.6290    11.7960 hc         1 6XS       0.043700
     67 H52C        -6.8750    -5.4460    10.2890 hc         1 6XS       0.043700
@<TRIPOS>BOND
     1     1     2 1   
     2     1     6 2   
     3     1    40 1   
     4     2     3 2   
     5     2    41 1   
     6     3     4 1   
     7     3     5 1   
     8     5     6 1   
     9     6     7 1   
    10     7     8 2   
    11     7     9 1   
    12     9    10 1   
    13     9    42 1   
    14    10    11 1   
    15    10    43 1   
    16    10    44 1   
    17    11    12 1   
    18    11    21 1   
    19    11    45 1   
    20    12    13 2   
    21    12    14 1   
    22    14    15 1   
    23    14    20 1   
    24    15    16 1   
    25    15    47 1   
    26    15    48 1   
    27    16    17 1   
    28    16    51 1   
    29    16    52 1   
    30    17    18 1   
    31    17    19 1   
    32    18    53 1   
    33    18    54 1   
    34    18    55 1   
    35    19    20 1   
    36    19    56 1   
    37    19    57 1   
    38    20    49 1   
    39    20    50 1   
    40    21    22 1   
    41    21    46 1   
    42    22    23 2   
    43    22    24 2   
    44    22    25 1   
    45    25    26 ar  
    46    25    28 ar  
    47    26    27 1   
    48    26    32 ar  
    49    28    29 ar  
    50    28    58 1   
    51    29    30 1   
    52    29    31 ar  
    53    31    32 ar  
    54    31    59 1   
    55    32    33 1   
    56    33    34 1   
    57    33    38 1   
    58    34    35 1   
    59    34    60 1   
    60    34    61 1   
    61    35    36 1   
    62    35    62 1   
    63    35    63 1   
    64    36    37 1   
    65    36    64 1   
    66    36    65 1   
    67    37    38 1   
    68    37    66 1   
    69    37    67 1   
    70    38    39 2   
@<TRIPOS>SUBSTRUCTURE
     1 6XS         1 TEMP              0 ****  ****    0 ROOT
