@<TRIPOS>MOLECULE
molecule
   67    70     1     0     0
SMALL
bcc


@<TRIPOS>ATOM
      1 C33          0.0000     0.0000     0.0000 cc         1 6XS      -0.069000
      2 C32          1.3740     0.0000     0.0000 cc         1 6XS      -0.170000
      3 C31          1.9420     0.0000     1.2130 cd         1 6XS       0.055300
      4 Cl3          3.6550     0.0010     1.4980 cl         1 6XS      -0.044400
      5 S30          0.7580     0.0010     2.4400 ss         1 6XS      -0.038800
      6 C29         -0.5410     0.0000     1.2560 cd         1 6XS      -0.132700
      7 C28         -1.9720    -0.0000     1.5640 c          1 6XS       0.709700
      8 O39         -2.7890    -0.0000     0.6610 o          1 6XS      -0.600100
      9 N27         -2.3860     0.0010     2.8470 ns         1 6XS      -0.585900
     10 C26         -3.8180     0.0010     3.1550 c3         1 6XS       0.119000
     11 C17         -4.0130     0.0010     4.6730 c3         1 6XS       0.151500
     12 C18         -5.4810    -0.1100     4.9900 c          1 6XS       0.639100
     13 O38         -5.9620    -1.1880     5.2710 o          1 6XS      -0.597100
     14 N19         -6.2620     0.9880     4.9620 n          1 6XS      -0.488800
     15 C20         -7.7160     0.8870     5.1620 c3         1 6XS       0.103500
     16 C21         -8.4170     1.6240     4.0160 c3         1 6XS       0.144800
     17 N22         -7.8960     2.9950     3.9290 n3         1 6XS      -0.732600
     18 C25         -8.6620     3.7880     2.9580 c3         1 6XS       0.152100
     19 C23         -6.4640     3.0010     3.6020 c3         1 6XS       0.144800
     20 C24         -5.6820     2.3210     4.7360 c3         1 6XS       0.103500
     21 N16         -3.3000    -1.1370     5.2570 n7         1 6XS      -0.890100
     22 S15         -2.5500    -0.9800     6.7250 sy         1 6XS       1.424200
     23 O36         -1.9760    -2.2450     7.0210 o          1 6XS      -0.623800
     24 O37         -1.7930     0.2210     6.6630 o          1 6XS      -0.623800
     25 C9          -3.8100    -0.7120     7.9270 ca         1 6XS      -0.290500
     26 C8          -4.7360    -1.7050     8.1900 ca         1 6XS       0.126400
     27 Cl4         -4.6560    -3.2150     7.3370 cl         1 6XS      -0.052400
     28 C10         -3.8680     0.4880     8.6110 ca         1 6XS      -0.064000
     29 C11         -4.8570     0.7030     9.5560 ca         1 6XS       0.113900
     30 F13         -4.9120     1.8770    10.2220 f          1 6XS      -0.131900
     31 C12         -5.7890    -0.2850     9.8200 ca         1 6XS      -0.097000
     32 C7          -5.7290    -1.4940     9.1390 ca         1 6XS       0.070600
     33 N3          -6.6680    -2.4960     9.4060 n          1 6XS      -0.400000
     34 C2          -7.8970    -2.5090     8.6230 c3         1 6XS       0.108000
     35 C1          -8.5650    -3.8820     8.6970 c3         1 6XS      -0.097400
     36 C6          -8.6820    -4.2920    10.1700 c3         1 6XS      -0.090400
     37 C5          -7.2740    -4.5350    10.7180 c3         1 6XS      -0.143400
     38 C4          -6.3790    -3.3840    10.3590 c          1 6XS       0.704500
     39 O35         -5.3400    -3.2530    10.9700 o          1 6XS      -0.632500
     40 H33         -0.5960    -0.0000    -0.9050 ha         1 6XS       0.176000
     41 H32          1.9550    -0.0000    -0.9140 ha         1 6XS       0.165000
     42 H27         -1.7140     0.0310     3.5890 hn         1 6XS       0.324500
     43 H261        -4.2790     0.8850     2.7320 h1         1 6XS       0.068200
     44 H262        -4.2790    -0.8840     2.7320 h1         1 6XS       0.068200
     45 H17         -3.6230     0.9230     5.0870 h1         1 6XS       0.087700
     46 H16         -3.2660    -2.0100     4.7690 hn         1 6XS       0.473800
     47 H201        -7.9860     1.3430     6.1060 h1         1 6XS       0.063450
     48 H202        -8.0120    -0.1560     5.1570 h1         1 6XS       0.063450
     49 H241        -5.7640     2.9110     5.6410 h1         1 6XS       0.063450
     50 H242        -4.6410     2.2210     4.4520 h1         1 6XS       0.063450
     51 H211        -9.4830     1.6550     4.2070 h1         1 6XS       0.045700
     52 H212        -8.2260     1.1060     3.0840 h1         1 6XS       0.045700
     53 H251        -9.7070     3.7980     3.2430 h1         1 6XS       0.036033
     54 H252        -8.5610     3.3490     1.9730 h1         1 6XS       0.036033
     55 H253        -8.2820     4.8030     2.9420 h1         1 6XS       0.036033
     56 H231        -6.1240     4.0240     3.4930 h1         1 6XS       0.045700
     57 H232        -6.3030     2.4610     2.6780 h1         1 6XS       0.045700
     58 H10         -3.1280     1.2560     8.4190 ha         1 6XS       0.173000
     59 H12         -6.5620    -0.1170    10.5600 ha         1 6XS       0.161000
     60 H21C        -8.5760    -1.7620     9.0140 h1         1 6XS       0.052200
     61 H22C        -7.6630    -2.2820     7.5900 h1         1 6XS       0.052200
     62 H11C        -7.9610    -4.6080     8.1650 hc         1 6XS       0.058200
     63 H12C        -9.5520    -3.8290     8.2550 hc         1 6XS       0.058200
     64 H61C        -9.1590    -3.4970    10.7310 hc         1 6XS       0.050700
     65 H62C        -9.2650    -5.2020    10.2490 hc         1 6XS       0.050700
     66 H51C        -7.3210    -4.6290    11.7960 hc         1 6XS       0.079700
     67 H52C        -6.8750    -5.4460    10.2890 hc         1 6XS       0.079700
@<TRIPOS>BOND
     1     1     2 1   
     2     1     6 2   
     3     2     3 2   
     4     3     4 1   
     5     3     5 1   
     6     5     6 1   
     7     6     7 1   
     8     7     8 2   
     9     7     9 1   
    10     9    10 1   
    11    10    11 1   
    12    11    12 1   
    13    11    21 1   
    14    12    13 2   
    15    12    14 1   
    16    14    15 1   
    17    14    20 1   
    18    15    16 1   
    19    16    17 1   
    20    17    18 1   
    21    17    19 1   
    22    19    20 1   
    23    21    22 1   
    24    22    23 2   
    25    22    24 2   
    26    22    25 1   
    27    25    26 ar  
    28    25    28 ar  
    29    26    27 1   
    30    26    32 ar  
    31    28    29 ar  
    32    29    30 1   
    33    29    31 ar  
    34    31    32 ar  
    35    32    33 1   
    36    33    34 1   
    37    33    38 1   
    38    34    35 1   
    39    35    36 1   
    40    36    37 1   
    41    37    38 1   
    42    38    39 2   
    43     1    40 1   
    44     2    41 1   
    45     9    42 1   
    46    10    43 1   
    47    10    44 1   
    48    11    45 1   
    49    21    46 1   
    50    15    47 1   
    51    15    48 1   
    52    20    49 1   
    53    20    50 1   
    54    16    51 1   
    55    16    52 1   
    56    18    53 1   
    57    18    54 1   
    58    18    55 1   
    59    19    56 1   
    60    19    57 1   
    61    28    58 1   
    62    31    59 1   
    63    34    60 1   
    64    34    61 1   
    65    35    62 1   
    66    35    63 1   
    67    36    64 1   
    68    36    65 1   
    69    37    66 1   
    70    37    67 1   
@<TRIPOS>SUBSTRUCTURE
     1 6XS         1 TEMP              0 ****  ****    0 ROOT
