@<TRIPOS>MOLECULE
molecule
   45    48     1     0     0
SMALL
bcc


@<TRIPOS>ATOM
      1 C1           0.0000     0.0000     0.0000 c3         1 6XT      -0.042800
      2 C2           1.5060     0.0000     0.0000 ca         1 6XT      -0.141300
      3 C3           2.1970     0.0000     1.1960 ca         1 6XT      -0.093000
      4 C7           2.2000    -0.0070    -1.2050 ca         1 6XT       0.073600
      5 C9           2.0790    -0.5090    -3.5260 c          1 6XT       0.657100
      6 C11          1.3760    -0.4020    -4.8550 c3         1 6XT      -0.172100
      7 C13          6.3720     0.6850    -0.9810 cc         1 6XT       0.763200
      8 C14          7.7710     0.5890    -1.0430 cc         1 6XT      -0.460300
      9 C15          8.4430     1.2630    -2.0210 cd         1 6XT       0.359300
     10 N18          5.7160     1.4210    -1.8610 nd         1 6XT      -0.790000
     11 C19          5.9340     2.9150    -3.8510 cc         1 6XT      -0.405600
     12 C20          7.0560     3.3350    -4.5540 cc         1 6XT       0.429500
     13 C24         11.9900     0.0070    -1.4340 cx         1 6XT      -0.148900
     14 C4           3.5790     0.0000     1.2000 ca         1 6XT      -0.183000
     15 C5           4.2780    -0.0000    -0.0010 ca         1 6XT       0.167600
     16 C6           3.5880    -0.0070    -1.2050 ca         1 6XT      -0.126000
     17 N8           1.4990    -0.0130    -2.4160 ns         1 6XT      -0.472100
     18 O10          3.1660    -1.0420    -3.4570 o          1 6XT      -0.588100
     19 N12          5.6760    -0.0010     0.0030 nu         1 6XT      -0.761300
     20 N16          7.7340     2.0200    -2.9180 na         1 6XT      -0.016800
     21 C17          6.3700     2.0880    -2.8240 cd         1 6XT       0.482500
     22 N21          8.1250     2.8080    -4.0060 nd         1 6XT      -0.610100
     23 N22          9.8180     1.1860    -2.1040 nu         1 6XT      -0.765600
     24 C23         10.5750     0.4670    -1.0760 cx         1 6XT       0.171500
     25 C25         11.7870     1.1750    -0.4650 cx         1 6XT      -0.148900
     26 H1          -0.3610    -0.0700     1.0190 hc         1 6XT       0.039033
     27 H2          -0.3610    -0.8470    -0.5700 hc         1 6XT       0.039033
     28 H3          -0.3610     0.9170    -0.4490 hc         1 6XT       0.039033
     29 H4           1.6540     0.0000     2.1340 ha         1 6XT       0.131000
     30 H5           2.0390    -0.7390    -5.6420 hc         1 6XT       0.062033
     31 H6           1.0970     0.6290    -5.0340 hc         1 6XT       0.062033
     32 H7           0.4860    -1.0200    -4.8430 hc         1 6XT       0.062033
     33 H8           8.3120    -0.0140    -0.3240 ha         1 6XT       0.152000
     34 H9           4.9070     3.1830    -4.0640 ha         1 6XT       0.166000
     35 H10          7.0480     3.9920    -5.4160 h4         1 6XT       0.055800
     36 H12         12.3070    -0.9250    -0.9820 hc         1 6XT       0.082950
     37 H13          4.1170     0.0030     2.1400 ha         1 6XT       0.127000
     38 H14          4.1300    -0.0100    -2.1420 ha         1 6XT       0.201000
     39 H15          0.5840     0.3900    -2.4660 hn         1 6XT       0.324500
     40 H16          6.1750    -0.5160     0.7020 hn         1 6XT       0.455800
     41 H17         10.3020     1.6580    -2.8420 hn         1 6XT       0.468800
     42 H18         10.0440    -0.1890    -0.3980 h1         1 6XT       0.106700
     43 H19         11.9790     0.9560     0.5780 hc         1 6XT       0.082950
     44 H20         12.0050     2.1580    -0.8660 hc         1 6XT       0.082950
     45 H11         12.3330     0.2770    -2.4260 hc         1 6XT       0.082950
@<TRIPOS>BOND
     1    25    13 1
     2    25    24 1
     3    13    24 1
     4    24    23 1
     5    23     9 1
     6     8     9 2
     7     8     7 1
     8    14     3 ar
     9    14    15 ar
    10    19     7 1
    11    19    15 1
    12     9    20 1
    13     3     2 ar
    14     7    10 2
    15    15    16 ar
    16    20    22 1
    17    20    21 1
    18     2     1 1
    19     2     4 ar
    20    10    21 1
    21    16     4 ar
    22    22    12 2
    23    21    11 2
    24     4    17 1
    25    12    11 1
    26    17     5 1
    27     5    18 2
    28     5     6 1
    29     1    26 1
    30     1    27 1
    31     1    28 1
    32     3    29 1
    33     6    30 1
    34     6    31 1
    35     6    32 1
    36     8    33 1
    37    11    34 1
    38    12    35 1
    39    13    45 1
    40    13    36 1
    41    14    37 1
    42    16    38 1
    43    17    39 1
    44    19    40 1
    45    23    41 1
    46    24    42 1
    47    25    43 1
    48    25    44 1
@<TRIPOS>SUBSTRUCTURE
     1 6XT         1 TEMP              0 ****  ****    0 ROOT
