@<TRIPOS>MOLECULE
molecule
   54    57     1     0     0
SMALL
bcc


@<TRIPOS>ATOM
      1 C01          1.5300     0.0000     0.0000 c3         1 6XU      -0.086100
      2 C02          0.0000     0.0000     0.0000 c3         1 6XU       0.292700
      3 C03         -0.4920     0.0000     1.4190 ce         1 6XU      -0.337400
      4 C04         -0.9860    -1.1200     1.9830 c2         1 6XU       0.221800
      5 N05         -1.0500    -2.2760     1.2500 nu         1 6XU      -0.703000
      6 C06         -0.9530    -2.2180    -0.1260 cf         1 6XU       0.607200
      7 N07         -0.4760    -1.1720    -0.7240 n2         1 6XU      -0.684900
      8 C08         -1.4010    -3.3690    -0.9320 cd         1 6XU       0.417100
      9 N09         -1.9050    -4.4770    -0.4590 nc         1 6XU      -0.642000
     10 C10         -2.2460    -5.3750    -1.3490 cc         1 6XU       0.364200
     11 C11         -2.0330    -5.0390    -2.6270 cd         1 6XU      -0.238400
     12 S12         -1.3520    -3.4710    -2.6890 ss         1 6XU      -0.116300
     13 C13         -1.4640    -1.1010     3.4110 c3         1 6XU       0.185000
     14 N14         -2.9060    -1.3770     3.4500 n3         1 6XU      -0.668600
     15 C15         -3.6770    -0.2450     2.8900 c3         1 6XU       0.090800
     16 C16         -4.9960    -0.1620     3.6810 c3         1 6XU       0.370600
     17 C17         -4.9070    -1.2900     4.7340 c3         1 6XU      -0.088400
     18 C18         -3.3810    -1.5390     4.8470 c3         1 6XU       0.053500
     19 C19         -3.1050    -2.9340     5.3440 c          1 6XU       0.900600
     20 O20         -2.4890    -3.7100     4.6540 o          1 6XU      -0.832300
     21 O21         -3.5440    -3.3150     6.5540 o          1 6XU      -0.832300
     22 F22         -5.1060     1.0820     4.3100 f          1 6XU      -0.249800
     23 F23         -6.0860    -0.3770     2.8310 f          1 6XU      -0.249800
     24 C24         -0.4370     1.1940     2.1750 c          1 6XU       0.673300
     25 O25         -1.3000     2.0400     2.0380 o          1 6XU      -0.539000
     26 O26          0.5720     1.3930     3.0490 os         1 6XU      -0.426900
     27 C27          0.6280     2.6670     3.6940 c3         1 6XU       0.133700
     28 C28         -0.4930     1.2440    -0.6940 ca         1 6XU      -0.070300
     29 C29          0.1900     2.4360    -0.5420 ca         1 6XU      -0.081500
     30 C30         -0.2620     3.5770    -1.1790 ca         1 6XU      -0.170000
     31 C31         -1.3990     3.5250    -1.9680 ca         1 6XU       0.122900
     32 C32         -2.0810     2.3300    -2.1180 ca         1 6XU      -0.170000
     33 C33         -1.6250     1.1900    -1.4850 ca         1 6XU      -0.081500
     34 F34         -1.8410     4.6390    -2.5900 f          1 6XU      -0.154900
     35 H1           1.8910    -0.9550     0.3630 hc         1 6XU       0.041700
     36 H2           1.8910     0.1630    -1.0080 hc         1 6XU       0.041700
     37 H3           1.8910     0.7910     0.6460 hc         1 6XU       0.041700
     38 H4          -1.1660    -3.1580     1.7100 hn         1 6XU       0.497800
     39 H5          -2.6730    -6.3300    -1.0680 h4         1 6XU       0.044100
     40 H6          -2.2560    -5.6620    -3.4850 h4         1 6XU       0.176000
     41 H7          -0.9360    -1.8580     3.9790 h1         1 6XU       0.070700
     42 H8          -1.2710    -0.1260     3.8440 h1         1 6XU       0.070700
     43 H10         -3.8870    -0.4250     1.8420 h1         1 6XU       0.063200
     44 H11         -3.1180     0.6760     3.0080 h1         1 6XU       0.063200
     45 H12         -5.3100    -0.9580     5.6830 hc         1 6XU       0.080700
     46 H13         -5.4140    -2.1810     4.3840 hc         1 6XU       0.080700
     47 H14         -2.9220    -0.7990     5.4920 h1         1 6XU       0.033700
     48 H16          1.4350     2.6700     4.4170 h1         1 6XU       0.042367
     49 H17          0.8030     3.4390     2.9550 h1         1 6XU       0.042367
     50 H18         -0.3110     2.8580     4.2000 h1         1 6XU       0.042367
     51 H19          1.0790     2.4760     0.0750 ha         1 6XU       0.141500
     52 H20          0.2740     4.5110    -1.0610 ha         1 6XU       0.135500
     53 H21         -2.9700     2.2880    -2.7370 ha         1 6XU       0.135500
     54 H22         -2.1590     0.2550    -1.6030 ha         1 6XU       0.141500
@<TRIPOS>BOND
     1    23    16 1   
     2    10    11 2   
     3    10     9 1   
     4    17    16 1   
     5    17    18 1   
     6    20    19 1   
     7    22    16 1   
     8    16    15 1   
     9    11    12 1   
    10    19    21 1   
    11    19    18 1   
    12     9     8 2   
    13    18    14 1   
    14    15    14 1   
    15    14    13 1   
    16     8    12 1   
    17     8     6 1   
    18     5     6 1   
    19     5     4 1   
    20     6     7 2   
    21    13     4 1   
    22     4     3 2   
    23     7     2 1   
    24     3     2 1   
    25     3    24 1   
    26    33    32 ar  
    27    33    28 ar  
    28     2    28 1   
    29     2     1 1   
    30    32    31 ar  
    31    25    24 2   
    32    24    26 1   
    33    28    29 ar  
    34    31    34 1   
    35    31    30 ar  
    36    26    27 1   
    37    29    30 ar  
    38     1    35 1   
    39     1    36 1   
    40     1    37 1   
    41     5    38 1   
    42    10    39 1   
    43    11    40 1   
    44    13    41 1   
    45    13    42 1   
    46    15    43 1   
    47    15    44 1   
    48    17    45 1   
    49    17    46 1   
    50    18    47 1   
    51    27    48 1   
    52    27    49 1   
    53    27    50 1   
    54    29    51 1   
    55    30    52 1   
    56    32    53 1   
    57    33    54 1   
@<TRIPOS>SUBSTRUCTURE
     1 6XU         1 TEMP              0 ****  ****    0 ROOT
