@<TRIPOS>MOLECULE
molecule
   48    51     1     0     0
SMALL
bcc


@<TRIPOS>ATOM
      1 N10          0.0000     0.0000     0.0000 nu         1 6XV      -0.916200
      2 C14          0.4060    -0.8530    -2.5680 ca         1 6XV      -0.170000
      3 C18         -2.2370     0.2820    -9.8230 ca         1 6XV      -0.200000
      4 C19         -3.6170     0.0690    -9.9220 ca         1 6XV       0.242400
      5 C26         -4.3620    -0.2350    -8.7780 ca         1 6XV      -0.200000
      6 C27         -3.7430    -0.3240    -7.5650 ca         1 6XV      -0.059000
      7 C02         -1.6960    -0.2090    -6.1560 c          1 6XV       0.681700
      8 C04          0.2530    -0.0010    -4.8050 ca         1 6XV       0.016600
      9 C05          1.3210     0.8530    -4.5610 ca         1 6XV      -0.121000
     10 C06          1.9370     0.8550    -3.3270 ca         1 6XV      -0.170000
     11 C07          1.4820     0.0010    -2.3210 ca         1 6XV       0.195400
     12 N08          2.0920     0.0000    -1.0930 ne         1 6XV      -0.763100
     13 C09          1.3660     0.0000     0.0000 c2         1 6XV       0.875100
     14 C11         -0.4800     0.0000     1.3890 c3         1 6XV       0.195800
     15 C12          0.8030    -0.0070     2.2400 c3         1 6XV       0.195800
     16 N13          1.8960     0.0000     1.2590 nu         1 6XV      -0.916200
     17 C15         -0.2020    -0.8540    -3.8050 ca         1 6XV      -0.121000
     18 C16         -2.3630    -0.1120    -7.4660 ca         1 6XV      -0.197600
     19 C17         -1.6190     0.1920    -8.6110 ca         1 6XV      -0.059000
     20 C21         -5.1100    -0.7540   -11.4970 c2         1 6XV       0.885100
     21 N22         -5.7700    -0.7340   -12.6900 nu         1 6XV      -0.911200
     22 C23         -6.6640    -1.8970   -12.7630 c3         1 6XV       0.195300
     23 C24         -6.4480    -2.6320   -11.4280 c3         1 6XV       0.195300
     24 N25         -5.4480    -1.8220   -10.7200 nu         1 6XV      -0.911200
     25 H1          -0.5810     0.0010    -0.8150 hn         1 6XV       0.488800
     26 H2           0.0510    -1.5170    -1.7890 ha         1 6XV       0.138000
     27 H3          -1.6600     0.5170   -10.7090 ha         1 6XV       0.140500
     28 H4          -5.4300    -0.3990    -8.8540 ha         1 6XV       0.140500
     29 H5          -4.3200    -0.5590    -6.6780 ha         1 6XV       0.136000
     30 H6           0.1840     0.1020    -6.8900 hn         1 6XV       0.322500
     31 H7           1.6730     1.5160    -5.3430 ha         1 6XV       0.143500
     32 H8           2.7710     1.5200    -3.1380 ha         1 6XV       0.138000
     33 H9          -0.9700    -0.9520     1.5520 h1         1 6XV       0.061200
     34 H10         -0.9610     0.9570     1.5550 h1         1 6XV       0.061200
     35 H11          0.8390    -0.9650     2.7450 h1         1 6XV       0.061200
     36 H12          0.8400     0.9430     2.7590 h1         1 6XV       0.061200
     37 H13          2.8730     0.0040     1.4780 hn         1 6XV       0.488800
     38 H14         -1.0380    -1.5160    -3.9980 ha         1 6XV       0.143500
     39 H15         -0.5510     0.3570    -8.5340 ha         1 6XV       0.136000
     40 H16         -5.6610    -0.0390   -13.4020 hn         1 6XV       0.489800
     41 H17         -6.2780    -2.5420   -13.5430 h1         1 6XV       0.064200
     42 H18         -7.6780    -1.5150   -12.7510 h1         1 6XV       0.064200
     43 H19         -7.3730    -2.5480   -10.8690 h1         1 6XV       0.064200
     44 H20         -5.9770    -3.5790   -11.6630 h1         1 6XV       0.064200
     45 H21         -5.0730    -2.0220    -9.8140 hn         1 6XV       0.489800
     46 N03         -0.3660    -0.0050    -6.0610 ns         1 6XV      -0.474100
     47 N20         -4.2350     0.1600   -11.1360 ne         1 6XV      -0.769100
     48 O01         -2.3430    -0.4740    -5.1610 o          1 6XV      -0.615100
@<TRIPOS>BOND
     1    23    22 1   
     2    23    24 1   
     3    22    21 1   
     4    21    20 1   
     5    24    20 1   
     6    20    47 2   
     7    47     4 1   
     8     3     4 ar  
     9     3    19 ar  
    10     4     5 ar  
    11    19    18 ar  
    12     5     6 ar  
    13    48     7 2   
    14    18     6 ar  
    15    18     7 1   
    16     7    46 1   
    17     9    10 ar  
    18     9     8 ar  
    19    46     8 1   
    20    10    11 ar  
    21     8    17 ar  
    22    11    12 1   
    23    11     2 ar  
    24    17     2 ar  
    25    12    13 2   
    26    13    16 1   
    27    13     1 1   
    28    16    15 1   
    29     1    14 1   
    30    15    14 1   
    31     1    25 1   
    32     2    26 1   
    33     3    27 1   
    34     5    28 1   
    35     6    29 1   
    36    46    30 1   
    37     9    31 1   
    38    10    32 1   
    39    14    33 1   
    40    14    34 1   
    41    15    35 1   
    42    15    36 1   
    43    16    37 1   
    44    17    38 1   
    45    19    39 1   
    46    21    40 1   
    47    22    41 1   
    48    22    42 1   
    49    23    43 1   
    50    23    44 1   
    51    24    45 1   
@<TRIPOS>SUBSTRUCTURE
     1 6XV         1 TEMP              0 ****  ****    0 ROOT
