@<TRIPOS>MOLECULE
6XV
   48    51     1     0     0
SMALL
bcc


@<TRIPOS>ATOM
      1 N10          0.0000     0.0000     0.0000 nu         1 6XV      -0.528700
      2 C14          0.4060    -0.8530    -2.5680 ca         1 6XV      -0.155500
      3 C18         -2.2370     0.2820    -9.8230 ca         1 6XV      -0.188500
      4 C19         -3.6170     0.0690    -9.9220 ca         1 6XV       0.217400
      5 C26         -4.3620    -0.2350    -8.7780 ca         1 6XV      -0.188500
      6 C27         -3.7430    -0.3240    -7.5650 ca         1 6XV      -0.025000
      7 C02         -1.6960    -0.2090    -6.1560 c          1 6XV       0.594700
      8 C04          0.2530    -0.0010    -4.8050 ca         1 6XV      -0.135400
      9 C05          1.3210     0.8530    -4.5610 ca         1 6XV      -0.087500
     10 C06          1.9370     0.8550    -3.3270 ca         1 6XV      -0.155500
     11 C07          1.4820     0.0010    -2.3210 ca         1 6XV       0.175400
     12 N08          2.0920     0.0000    -1.0930 ne         1 6XV      -0.696100
     13 C09          1.3660     0.0000     0.0000 c2         1 6XV       0.588100
     14 C11         -0.4800     0.0000     1.3890 c3         1 6XV       0.144300
     15 C12          0.8030    -0.0070     2.2400 c3         1 6XV       0.144300
     16 N13          1.8960     0.0000     1.2590 nu         1 6XV      -0.528700
     17 C15         -0.2020    -0.8540    -3.8050 ca         1 6XV      -0.087500
     18 C16         -2.3630    -0.1120    -7.4660 ca         1 6XV      -0.216600
     19 C17         -1.6190     0.1920    -8.6110 ca         1 6XV      -0.025000
     20 C21         -5.1100    -0.7540   -11.4970 c2         1 6XV       0.594100
     21 N22         -5.7700    -0.7340   -12.6900 nu         1 6XV      -0.520700
     22 C23         -6.6640    -1.8970   -12.7630 c3         1 6XV       0.143300
     23 C24         -6.4480    -2.6320   -11.4280 c3         1 6XV       0.143300
     24 N25         -5.4480    -1.8220   -10.7200 nu         1 6XV      -0.520700
     25 H1          -0.5810     0.0010    -0.8150 hn         1 6XV       0.343800
     26 H2           0.0510    -1.5170    -1.7890 ha         1 6XV       0.113000
     27 H3          -1.6600     0.5170   -10.7090 ha         1 6XV       0.116000
     28 H4          -5.4300    -0.3990    -8.8540 ha         1 6XV       0.116000
     29 H5          -4.3200    -0.5590    -6.6780 ha         1 6XV       0.108000
     30 H6           0.1840     0.1020    -6.8900 hn         1 6XV       0.170500
     31 H7           1.6730     1.5160    -5.3430 ha         1 6XV       0.120500
     32 H8           2.7710     1.5200    -3.1380 ha         1 6XV       0.113000
     33 H9          -0.9610     0.9570     1.5550 h1         1 6XV       0.030200
     34 H10         -0.9700    -0.9520     1.5520 h1         1 6XV       0.030200
     35 H11          0.8400     0.9430     2.7590 h1         1 6XV       0.030200
     36 H12          0.8390    -0.9650     2.7450 h1         1 6XV       0.030200
     37 H13          2.8730     0.0040     1.4780 hn         1 6XV       0.343800
     38 H14         -1.0380    -1.5160    -3.9980 ha         1 6XV       0.120500
     39 H15         -0.5510     0.3570    -8.5340 ha         1 6XV       0.108000
     40 H16         -5.6610    -0.0390   -13.4020 hn         1 6XV       0.343800
     41 H17         -7.6780    -1.5150   -12.7510 h1         1 6XV       0.032450
     42 H18         -6.2780    -2.5420   -13.5430 h1         1 6XV       0.032450
     43 H19         -5.9770    -3.5790   -11.6630 h1         1 6XV       0.032450
     44 H20         -7.3730    -2.5480   -10.8690 h1         1 6XV       0.032450
     45 H21         -5.0730    -2.0220    -9.8140 hn         1 6XV       0.343800
     46 N03         -0.3660    -0.0050    -6.0610 ns         1 6XV      -0.033100
     47 N20         -4.2350     0.1600   -11.1360 ne         1 6XV      -0.702100
     48 O01         -2.3430    -0.4740    -5.1610 o          1 6XV      -0.660100
@<TRIPOS>BOND
     1     1    13 1   
     2     1    14 1   
     3     1    25 1   
     4     2    11 ar  
     5     2    17 ar  
     6     2    26 1   
     7     3     4 ar  
     8     3    19 ar  
     9     3    27 1   
    10     4     5 ar  
    11     4    47 1   
    12     5     6 ar  
    13     5    28 1   
    14     6    18 ar  
    15     6    29 1   
    16     7    18 1   
    17     7    46 1   
    18     7    48 2   
    19     8     9 ar  
    20     8    17 ar  
    21     8    46 1   
    22     9    10 ar  
    23     9    31 1   
    24    10    11 ar  
    25    10    32 1   
    26    11    12 1   
    27    12    13 2   
    28    13    16 1   
    29    14    15 1   
    30    14    33 1   
    31    14    34 1   
    32    15    16 1   
    33    15    35 1   
    34    15    36 1   
    35    16    37 1   
    36    17    38 1   
    37    18    19 ar  
    38    19    39 1   
    39    20    21 1   
    40    20    24 1   
    41    20    47 2   
    42    21    22 1   
    43    21    40 1   
    44    22    23 1   
    45    22    41 1   
    46    22    42 1   
    47    23    24 1   
    48    23    43 1   
    49    23    44 1   
    50    24    45 1   
    51    30    46 1   
@<TRIPOS>SUBSTRUCTURE
     1 6XV         1 TEMP              0 ****  ****    0 ROOT
