@<TRIPOS>MOLECULE
6XW
   68    72     1     0     0
SMALL
bcc


@<TRIPOS>ATOM
      1 C10          0.0000     0.0000     0.0000 ca         1 6XW       0.436200
      2 N12          1.3210     0.0000     0.0000 nb         1 6XW      -0.632000
      3 C13          2.0350     0.0000     1.1120 ca         1 6XW       0.501200
      4 C21          4.9650    -1.4380    -2.1070 c3         1 6XW       0.149800
      5 C26          6.2030     0.5470    -1.4730 c3         1 6XW       0.120800
      6 C05          0.0850     0.0020     4.8250 cc         1 6XW      -0.173400
      7 C06         -0.6770     0.0020     3.7010 cd         1 6XW      -0.044200
      8 C08         -0.0020    -0.0050     2.4070 ca         1 6XW      -0.031800
      9 C09         -0.7190     0.0010     1.1890 cp         1 6XW      -0.168300
     10 N14          3.4230    -0.0000     1.0420 nu         1 6XW      -0.503900
     11 C16          4.0900    -0.0000    -0.2620 c3         1 6XW       0.134500
     12 C18          4.2130    -1.4390    -0.7730 c3         1 6XW      -0.043400
     13 N24          6.2970    -0.8500    -1.9190 n7         1 6XW      -0.579200
     14 C29          5.4890     0.6050    -0.1210 c3         1 6XW       0.168100
     15 O31          5.3810     1.9650     0.3020 os         1 6XW      -0.409600
     16 C32          6.4840     2.4210     1.0860 c3         1 6XW       0.214400
     17 C35          6.2620     3.8820     1.4810 c3         1 6XW      -0.076700
     18 C37          7.3730     4.3210     2.4300 c3         1 6XW       0.000100
     19 C40          7.0350     5.6850     3.0360 c3         1 6XW      -0.003600
     20 S43          6.9730     6.9230     1.7080 s6         1 6XW       0.790000
     21 O44          8.2440     6.9730     1.0740 o          1 6XW      -0.584800
     22 O45          6.4060     8.1190     2.2250 o          1 6XW      -0.584800
     23 C46          5.7820     6.1620     0.5670 c3         1 6XW      -0.003600
     24 C49          6.2550     4.7470     0.2250 c3         1 6XW       0.000100
     25 C52          1.4010     0.0000     2.3620 ca         1 6XW      -0.264700
     26 N53          2.1200     0.0010     3.5370 ns         1 6XW       0.054900
     27 C55          1.4930     0.0010     4.7280 c          1 6XW       0.592700
     28 O56          2.1600     0.0010     5.7480 o          1 6XW      -0.694500
     29 C57         -2.1990     0.0070     1.1800 cp         1 6XW      -0.085300
     30 C58         -2.9160    -0.9090     1.9510 ca         1 6XW       0.331200
     31 N60         -4.2330    -0.9070     1.9470 nb         1 6XW      -0.532000
     32 C61         -4.9280    -0.0500     1.2220 ca         1 6XW       0.314200
     33 C63         -4.2900     0.8940     0.4270 ca         1 6XW      -0.058700
     34 N64         -5.0370     1.7960    -0.3350 nv         1 6XW      -0.433200
     35 C67         -2.9010     0.9340     0.4040 ca         1 6XW      -0.160000
     36 H1          -0.5320    -0.0000    -0.9440 h4         1 6XW      -0.014900
     37 H3           4.4120    -0.8520    -2.8310 h1         1 6XW       0.010700
     38 H4           5.6420     1.1200    -2.2010 h1         1 6XW       0.016700
     39 H5           7.2000     0.9590    -1.3710 h1         1 6XW       0.016700
     40 H6          -0.2990     0.9020     6.7160 hc         1 6XW       0.014700
     41 H7          -0.2510    -0.8660     6.7410 hc         1 6XW       0.014700
     42 H8          -1.6510    -0.0290     6.0570 hc         1 6XW       0.014700
     43 H9          -1.7310     0.2450     3.7610 ha         1 6XW       0.134000
     44 H10          3.9660    -0.0400     1.8820 hn         1 6XW       0.290800
     45 H11          3.5140     0.5850    -0.9690 h1         1 6XW       0.066700
     46 H12          4.7610    -2.0320    -0.0510 hc         1 6XW       0.031200
     47 H13          3.2240    -1.8560    -0.9170 hc         1 6XW       0.031200
     48 H14          6.8050    -0.8920    -2.7800 hn         1 6XW       0.257800
     49 H16          6.0540     0.0380     0.6090 h1         1 6XW       0.022700
     50 H17          6.5680     1.8130     1.9790 h1         1 6XW      -0.001800
     51 H18          7.3960     2.3380     0.5070 h1         1 6XW      -0.001800
     52 H19          5.3070     3.9790     1.9840 hc         1 6XW       0.040700
     53 H20          7.4750     3.5920     3.2240 hc         1 6XW       0.034450
     54 H21          8.3040     4.3950     1.8810 hc         1 6XW       0.034450
     55 H22          6.0710     5.6330     3.5280 h1         1 6XW       0.070950
     56 H23          7.7990     5.9610     3.7530 h1         1 6XW       0.070950
     57 H24          4.8090     6.1130     1.0400 h1         1 6XW       0.070950
     58 H25          5.7220     6.7520    -0.3400 h1         1 6XW       0.070950
     59 H26          7.2580     4.7940    -0.1830 hc         1 6XW       0.034450
     60 H27          5.5840     4.3130    -0.5060 hc         1 6XW       0.034450
     61 H28          3.1200     0.0010     3.5040 hn         1 6XW       0.169500
     62 H29         -2.3830    -1.6290     2.5600 h4         1 6XW      -0.007900
     63 H30         -6.0100    -0.0840     1.2480 h4         1 6XW      -0.015900
     64 H31         -6.0370     1.7600    -0.3170 hn         1 6XW       0.267800
     65 H32         -4.5720     2.4800    -0.9000 hn         1 6XW       0.267800
     66 H33         -2.3750     1.6580    -0.2060 ha         1 6XW       0.120000
     67 C01         -0.5760     0.0020     6.1800 c3         1 6XW       0.079100
     68 H2           5.0690    -2.4560    -2.4620 h1         1 6XW       0.010700
@<TRIPOS>BOND
     1     1     2 ar  
     2     1     9 ar  
     3     1    36 1   
     4     2     3 ar  
     5     3    10 1   
     6     3    25 ar  
     7     4    12 1   
     8     4    13 1   
     9     4    37 1   
    10     4    68 1   
    11     5    13 1   
    12     5    14 1   
    13     5    38 1   
    14     5    39 1   
    15     6     7 2   
    16     6    27 1   
    17     6    67 1   
    18     7     8 1   
    19     7    43 1   
    20     8     9 ar  
    21     8    25 ar  
    22     9    29 1   
    23    10    11 1   
    24    10    44 1   
    25    11    12 1   
    26    11    14 1   
    27    11    45 1   
    28    12    46 1   
    29    12    47 1   
    30    13    48 1   
    31    14    15 1   
    32    14    49 1   
    33    15    16 1   
    34    16    17 1   
    35    16    50 1   
    36    16    51 1   
    37    17    18 1   
    38    17    24 1   
    39    17    52 1   
    40    18    19 1   
    41    18    53 1   
    42    18    54 1   
    43    19    20 1   
    44    19    55 1   
    45    19    56 1   
    46    20    21 2   
    47    20    22 2   
    48    20    23 1   
    49    23    24 1   
    50    23    57 1   
    51    23    58 1   
    52    24    59 1   
    53    24    60 1   
    54    25    26 1   
    55    26    27 1   
    56    26    61 1   
    57    27    28 2   
    58    29    30 ar  
    59    29    35 ar  
    60    30    31 ar  
    61    30    62 1   
    62    31    32 ar  
    63    32    33 ar  
    64    32    63 1   
    65    33    34 1   
    66    33    35 ar  
    67    34    64 1   
    68    34    65 1   
    69    35    66 1   
    70    40    67 1   
    71    41    67 1   
    72    42    67 1   
@<TRIPOS>SUBSTRUCTURE
     1 6XW         1 TEMP              0 ****  ****    0 ROOT
