@<TRIPOS>MOLECULE
molecule
   73    77     1     0     0
SMALL
bcc


@<TRIPOS>ATOM
      1 C13          0.0000     0.0000     0.0000 c3         1 6XX       0.134800
      2 C22         -4.0630     1.7990    -0.3200 c3         1 6XX      -0.073700
      3 C24         -4.7060     2.5600    -1.4830 c3         1 6XX      -0.075400
      4 O05          2.0450     1.2580     3.4340 os         1 6XX      -0.397600
      5 C06          1.5460     1.2690     2.0940 c3         1 6XX       0.129100
      6 C08          1.9990     0.0000     1.3700 c3         1 6XX       0.129800
      7 N11          1.4690     0.0000     0.0000 n7         1 6XX      -0.823200
      8 C16         -0.5120     1.2700     0.6840 c3         1 6XX       0.134100
      9 O18         -1.9410     1.2590     0.7000 os         1 6XX      -0.419600
     10 C19         -2.5410     1.8670    -0.4450 c3         1 6XX       0.140400
     11 C27         -6.2290     2.4910    -1.3580 c3         1 6XX      -0.118400
     12 C30         -6.6790     1.0290    -1.3950 c3         1 6XX       0.400600
     13 F31         -8.0720     0.9670    -1.2800 f          1 6XX      -0.240300
     14 F32         -6.2840     0.4490    -2.6050 f          1 6XX      -0.240300
     15 C33         -6.0370     0.2690    -0.2320 c3         1 6XX      -0.118400
     16 C36         -4.5140     0.3380    -0.3570 c3         1 6XX      -0.075400
     17 C39          0.0160     1.3190     2.1200 c3         1 6XX       0.256500
     18 N41         -0.4230     2.5600     2.7600 nu         1 6XX      -0.908900
     19 C43         -0.5320     2.6280     4.1450 ca         1 6XX       0.690200
     20 N44         -0.2370     1.5690     4.8780 nb         1 6XX      -0.710000
     21 C45         -0.3200     1.5690     6.1970 ca         1 6XX       0.455200
     22 C47         -0.7270     2.7010     6.8900 cp         1 6XX      -0.183300
     23 C48         -0.8170     2.6940     8.3690 cp         1 6XX      -0.148300
     24 C49         -0.2250     3.7080     9.1200 ca         1 6XX       0.417200
     25 N51         -0.3040     3.7010    10.4350 nb         1 6XX      -0.685000
     26 C52         -0.9380     2.7470    11.0900 ca         1 6XX       0.416200
     27 C54         -1.5500     1.7050    10.4170 ca         1 6XX      -0.204600
     28 C55         -2.2680     0.6230    11.1810 c3         1 6XX      -0.044800
     29 C59         -1.5000     1.6710     9.0340 ca         1 6XX      -0.088000
     30 C61         -1.0530     3.8600     6.1520 ca         1 6XX      -0.046800
     31 C62         -1.4890     5.0940     6.8010 cc         1 6XX      -0.063200
     32 C64         -1.7840     6.1640     6.0200 cd         1 6XX      -0.167400
     33 C65         -2.2370     7.4540     6.6520 c3         1 6XX      -0.032900
     34 C69         -1.6660     6.0710     4.6150 c          1 6XX       0.694700
     35 O70         -1.9350     7.0430     3.9310 o          1 6XX      -0.650500
     36 N71         -1.2650     4.9370     4.0130 ns         1 6XX      -0.420100
     37 C73         -0.9470     3.8190     4.7530 ca         1 6XX      -0.103700
     38 H1          -0.3590    -0.8680     0.5390 h1         1 6XX       0.046200
     39 H2          -0.3590    -0.0280    -1.0220 h1         1 6XX       0.046200
     40 H3          -4.3730     2.2470     0.6160 hc         1 6XX       0.066700
     41 H5          -4.4000     2.1100    -2.4190 hc         1 6XX       0.057950
     42 H6           4.0530     1.3390     2.9770 h1         1 6XX       0.031033
     43 H7           3.6280     1.8350     4.6210 h1         1 6XX       0.031033
     44 H8           3.2750     2.9030     3.2560 h1         1 6XX       0.031033
     45 H9           1.9260     2.1380     1.5690 h1         1 6XX       0.048700
     46 H10          3.0810    -0.0280     1.3360 h1         1 6XX       0.046700
     47 H11          1.6260    -0.8680     1.8990 h1         1 6XX       0.046700
     48 H12          1.8030    -0.8080    -0.4870 hn         1 6XX       0.364800
     49 H14         -0.1590     2.1380     0.1410 h1         1 6XX       0.049700
     50 H15         -2.2290     2.9030    -0.5090 h1         1 6XX       0.027700
     51 H16         -2.2280     1.3400    -1.3390 h1         1 6XX       0.027700
     52 H17         -6.5340     2.9380    -0.4200 hc         1 6XX       0.067700
     53 H18         -6.6820     3.0270    -2.1830 hc         1 6XX       0.067700
     54 H19         -6.3540    -0.7660    -0.2600 hc         1 6XX       0.067700
     55 H20         -6.3420     0.7210     0.7050 hc         1 6XX       0.067700
     56 H21         -4.2090    -0.1090    -1.2960 hc         1 6XX       0.057950
     57 H22         -4.0610    -0.1990     0.4680 hc         1 6XX       0.057950
     58 H23         -0.3630     0.4680     2.6720 h1         1 6XX       0.101700
     59 H24         -0.6210     3.3670     2.2030 hn         1 6XX       0.437800
     60 H25         -0.0650     0.6700     6.7460 h4         1 6XX       0.030100
     61 H26          0.3040     4.5090     8.6180 h4         1 6XX       0.031100
     62 H27         -0.9790     2.7800    12.1720 h4         1 6XX       0.024100
     63 H28         -3.1250     0.2870    10.6110 hc         1 6XX       0.046700
     64 H29         -1.5950    -0.2100    11.3460 hc         1 6XX       0.046700
     65 H30         -2.5990     1.0140    12.1360 hc         1 6XX       0.046700
     66 H31         -1.9710     0.8660     8.4810 ha         1 6XX       0.144000
     67 H32         -1.7980     5.0790     7.8390 ha         1 6XX       0.157000
     68 H33         -2.2380     7.3470     7.7300 hc         1 6XX       0.052700
     69 H34         -3.2370     7.6920     6.3120 hc         1 6XX       0.052700
     70 H35         -1.5600     8.2520     6.3690 hc         1 6XX       0.052700
     71 H36         -1.1920     4.9060     3.0160 hn         1 6XX       0.330500
     72 H4          -4.3890     3.5950    -1.4540 hc         1 6XX       0.057950
     73 C01          3.3280     1.8710     3.5810 c3         1 6XX       0.124700
@<TRIPOS>BOND
     1    73     4 1
     2     7     6 1
     3     7     1 1
     4     6     5 1
     5     4     5 1
     6     1     8 1
     7     5    17 1
     8     9     8 1
     9     9    10 1
    10     8    17 1
    11    10     2 1
    12    17    18 1
    13    16     2 1
    14    16    15 1
    15    18    19 1
    16     2     3 1
    17    15    12 1
    18    14    12 1
    19     3    11 1
    20    12    11 1
    21    12    13 1
    22    19    20 ar
    23    19    37 ar
    24    36    37 1
    25    36    34 1
    26    35    34 2
    27    20    21 ar
    28    37    30 ar
    29    34    32 1
    30    21    22 ar
    31    30    22 ar
    32    30    31 1
    33    32    31 2
    34    32    33 1
    35    22    23 1
    36    23    29 ar
    37    23    24 ar
    38    29    27 ar
    39    24    25 ar
    40    27    28 1
    41    27    26 ar
    42    25    26 ar
    43     1    38 1
    44     1    39 1
    45     2    40 1
    46     3    72 1
    47     3    41 1
    48    73    42 1
    49    73    43 1
    50    73    44 1
    51     5    45 1
    52     6    46 1
    53     6    47 1
    54     7    48 1
    55     8    49 1
    56    10    50 1
    57    10    51 1
    58    11    52 1
    59    11    53 1
    60    15    54 1
    61    15    55 1
    62    16    56 1
    63    16    57 1
    64    17    58 1
    65    18    59 1
    66    21    60 1
    67    24    61 1
    68    26    62 1
    69    28    63 1
    70    28    64 1
    71    28    65 1
    72    29    66 1
    73    31    67 1
    74    33    68 1
    75    33    69 1
    76    33    70 1
    77    36    71 1
@<TRIPOS>SUBSTRUCTURE
     1 6XX         1 TEMP              0 ****  ****    0 ROOT
