@<TRIPOS>MOLECULE
6XX
   73    77     1     0     0
SMALL
bcc


@<TRIPOS>ATOM
      1 C13          0.0000     0.0000     0.0000 c3         1 6XX       0.116800
      2 C22         -4.0630     1.7990    -0.3200 c3         1 6XX      -0.061700
      3 C24         -4.7060     2.5600    -1.4830 c3         1 6XX      -0.019400
      4 O05          2.0450     1.2580     3.4340 os         1 6XX      -0.384600
      5 C06          1.5460     1.2690     2.0940 c3         1 6XX       0.162100
      6 C08          1.9990     0.0000     1.3700 c3         1 6XX       0.113800
      7 N11          1.4690     0.0000     0.0000 n7         1 6XX      -0.576200
      8 C16         -0.5120     1.2700     0.6840 c3         1 6XX       0.171100
      9 O18         -1.9410     1.2590     0.7000 os         1 6XX      -0.404600
     10 C19         -2.5410     1.8670    -0.4450 c3         1 6XX       0.211400
     11 C27         -6.2290     2.4910    -1.3580 c3         1 6XX      -0.069400
     12 C30         -6.6790     1.0290    -1.3950 c3         1 6XX       0.372600
     13 F31         -8.0720     0.9670    -1.2800 f          1 6XX      -0.222800
     14 F32         -6.2840     0.4490    -2.6050 f          1 6XX      -0.222800
     15 C33         -6.0370     0.2690    -0.2320 c3         1 6XX      -0.069400
     16 C36         -4.5140     0.3380    -0.3570 c3         1 6XX      -0.019400
     17 C39          0.0160     1.3190     2.1200 c3         1 6XX       0.128500
     18 N41         -0.4230     2.5600     2.7600 nu         1 6XX      -0.501900
     19 C43         -0.5320     2.6280     4.1450 ca         1 6XX       0.506200
     20 N44         -0.2370     1.5690     4.8780 nb         1 6XX      -0.600000
     21 C45         -0.3200     1.5690     6.1970 ca         1 6XX       0.436200
     22 C47         -0.7270     2.7010     6.8900 cp         1 6XX      -0.173300
     23 C48         -0.8170     2.6940     8.3690 cp         1 6XX      -0.131300
     24 C49         -0.2250     3.7080     9.1200 ca         1 6XX       0.392200
     25 N51         -0.3040     3.7010    10.4350 nb         1 6XX      -0.576000
     26 C52         -0.9380     2.7470    11.0900 ca         1 6XX       0.398200
     27 C54         -1.5500     1.7050    10.4170 ca         1 6XX      -0.204600
     28 C55         -2.2680     0.6230    11.1810 c3         1 6XX       0.070200
     29 C59         -1.5000     1.6710     9.0340 ca         1 6XX      -0.068000
     30 C61         -1.0530     3.8600     6.1520 ca         1 6XX      -0.034800
     31 C62         -1.4890     5.0940     6.8010 cc         1 6XX      -0.046200
     32 C64         -1.7840     6.1640     6.0200 cd         1 6XX      -0.173400
     33 C65         -2.2370     7.4540     6.6520 c3         1 6XX       0.079100
     34 C69         -1.6660     6.0710     4.6150 c          1 6XX       0.591700
     35 O70         -1.9350     7.0430     3.9310 o          1 6XX      -0.696500
     36 N71         -1.2650     4.9370     4.0130 ns         1 6XX       0.055900
     37 C73         -0.9470     3.8190     4.7530 ca         1 6XX      -0.265700
     38 H1          -0.3590    -0.8680     0.5390 h1         1 6XX       0.019200
     39 H2          -0.3590    -0.0280    -1.0220 h1         1 6XX       0.019200
     40 H3          -4.3730     2.2470     0.6160 hc         1 6XX       0.040700
     41 H5          -4.4000     2.1100    -2.4190 hc         1 6XX       0.029700
     42 H6           4.0530     1.3390     2.9770 h1         1 6XX      -0.010633
     43 H7           3.6280     1.8350     4.6210 h1         1 6XX      -0.010633
     44 H8           3.2750     2.9030     3.2560 h1         1 6XX      -0.010633
     45 H9           1.9260     2.1380     1.5690 h1         1 6XX       0.019700
     46 H10          3.0810    -0.0280     1.3360 h1         1 6XX       0.020200
     47 H11          1.6260    -0.8680     1.8990 h1         1 6XX       0.020200
     48 H12          1.8030    -0.8080    -0.4870 hn         1 6XX       0.259800
     49 H14         -0.1590     2.1380     0.1410 h1         1 6XX       0.020700
     50 H15         -2.2290     2.9030    -0.5090 h1         1 6XX      -0.002800
     51 H16         -2.2280     1.3400    -1.3390 h1         1 6XX      -0.002800
     52 H17         -6.5340     2.9380    -0.4200 hc         1 6XX       0.039950
     53 H18         -6.6820     3.0270    -2.1830 hc         1 6XX       0.039950
     54 H19         -6.3540    -0.7660    -0.2600 hc         1 6XX       0.039950
     55 H20         -6.3420     0.7210     0.7050 hc         1 6XX       0.039950
     56 H21         -4.2090    -0.1090    -1.2960 hc         1 6XX       0.029700
     57 H22         -4.0610    -0.1990     0.4680 hc         1 6XX       0.029700
     58 H23         -0.3630     0.4680     2.6720 h1         1 6XX       0.075700
     59 H24         -0.6210     3.3670     2.2030 hn         1 6XX       0.287800
     60 H25         -0.0650     0.6700     6.7460 h4         1 6XX      -0.015900
     61 H26          0.3040     4.5090     8.6180 h4         1 6XX      -0.008900
     62 H27         -0.9790     2.7800    12.1720 h4         1 6XX      -0.017900
     63 H28         -3.1250     0.2870    10.6110 hc         1 6XX       0.010033
     64 H29         -1.5950    -0.2100    11.3460 hc         1 6XX       0.010033
     65 H30         -2.5990     1.0140    12.1360 hc         1 6XX       0.010033
     66 H31         -1.9710     0.8660     8.4810 ha         1 6XX       0.118000
     67 H32         -1.7980     5.0790     7.8390 ha         1 6XX       0.131000
     68 H33         -2.2380     7.3470     7.7300 hc         1 6XX       0.014700
     69 H34         -3.2370     7.6920     6.3120 hc         1 6XX       0.014700
     70 H35         -1.5600     8.2520     6.3690 hc         1 6XX       0.014700
     71 H36         -1.1920     4.9060     3.0160 hn         1 6XX       0.169500
     72 H4          -4.3890     3.5950    -1.4540 hc         1 6XX       0.029700
     73 C01          3.3280     1.8710     3.5810 c3         1 6XX       0.241700
@<TRIPOS>BOND
     1     1     7 1   
     2     1     8 1   
     3     1    38 1   
     4     1    39 1   
     5     2     3 1   
     6     2    10 1   
     7     2    16 1   
     8     2    40 1   
     9     3    11 1   
    10     3    41 1   
    11     3    72 1   
    12     4     5 1   
    13     4    73 1   
    14     5     6 1   
    15     5    17 1   
    16     5    45 1   
    17     6     7 1   
    18     6    46 1   
    19     6    47 1   
    20     7    48 1   
    21     8     9 1   
    22     8    17 1   
    23     8    49 1   
    24     9    10 1   
    25    10    50 1   
    26    10    51 1   
    27    11    12 1   
    28    11    52 1   
    29    11    53 1   
    30    12    13 1   
    31    12    14 1   
    32    12    15 1   
    33    15    16 1   
    34    15    54 1   
    35    15    55 1   
    36    16    56 1   
    37    16    57 1   
    38    17    18 1   
    39    17    58 1   
    40    18    19 1   
    41    18    59 1   
    42    19    20 ar  
    43    19    37 ar  
    44    20    21 ar  
    45    21    22 ar  
    46    21    60 1   
    47    22    23 1   
    48    22    30 ar  
    49    23    24 ar  
    50    23    29 ar  
    51    24    25 ar  
    52    24    61 1   
    53    25    26 ar  
    54    26    27 ar  
    55    26    62 1   
    56    27    28 1   
    57    27    29 ar  
    58    28    63 1   
    59    28    64 1   
    60    28    65 1   
    61    29    66 1   
    62    30    31 1   
    63    30    37 ar  
    64    31    32 2   
    65    31    67 1   
    66    32    33 1   
    67    32    34 1   
    68    33    68 1   
    69    33    69 1   
    70    33    70 1   
    71    34    35 2   
    72    34    36 1   
    73    36    37 1   
    74    36    71 1   
    75    42    73 1   
    76    43    73 1   
    77    44    73 1   
@<TRIPOS>SUBSTRUCTURE
     1 6XX         1 TEMP              0 ****  ****    0 ROOT
