@<TRIPOS>MOLECULE
molecule
   40    42     1     0     0
SMALL
bcc


@<TRIPOS>ATOM
      1 C2           0.0000     0.0000     0.0000 ca         1 6XY       0.026900
      2 C3          -2.4870     0.5200    -1.0900 ca         1 6XY       0.014900
      3 N1          -2.0870    -0.0030     1.2530 na         1 6XY      -0.193100
      4 C4          -2.9130     0.4600     0.2340 ca         1 6XY       0.084700
      5 C5           1.3970     0.0020     2.3930 ca         1 6XY       0.013100
      6 C6           2.0850     0.0000     1.1940 ca         1 6XY      -0.130000
      7 C7           1.3890     0.0000     0.0000 ca         1 6XY      -0.078000
      8 C8          -3.3460     0.9880    -2.0750 ca         1 6XY      -0.075000
      9 C9          -4.6260     1.3970    -1.7450 ca         1 6XY      -0.154000
     10 C10         -5.0510     1.3410    -0.4310 ca         1 6XY      -0.094000
     11 C12         -2.7260    -0.5380     2.4580 c3         1 6XY       0.047300
     12 C13         -2.9340     0.5920     3.4690 c3         1 6XY      -0.118400
     13 C14         -3.6010     0.0330     4.7270 c3         1 6XY       0.161800
     14 C15         -4.7710     2.1010     5.1950 c3         1 6XY       0.150100
     15 C16         -4.2190     0.5880     7.0010 c3         1 6XY       0.150100
     16 N2          -3.8010     1.1180     5.6970 n3         1 6XY      -0.728600
     17 C1          -0.6950     0.0010     1.2050 ca         1 6XY       0.084700
     18 C17          0.0150     0.0020     2.4020 ca         1 6XY      -0.158000
     19 S1          -0.8630     0.0090    -1.5350 ss         1 6XY      -0.249800
     20 C11         -4.2010     0.8770     0.5540 ca         1 6XY      -0.180000
     21 H2           3.1680    -0.0000     1.1900 ha         1 6XY       0.148000
     22 H3           1.9280    -0.0020    -0.9390 ha         1 6XY       0.147000
     23 H4          -3.0130     1.0320    -3.1050 ha         1 6XY       0.142000
     24 H5          -5.2930     1.7620    -2.5160 ha         1 6XY       0.135000
     25 H6          -6.0530     1.6620    -0.1740 ha         1 6XY       0.133000
     26 H7          -2.0920    -1.3000     2.8950 h1         1 6XY       0.060200
     27 H8          -3.6840    -0.9700     2.1980 h1         1 6XY       0.060200
     28 H9          -3.5680     1.3540     3.0320 hc         1 6XY       0.063700
     29 H10         -1.9760     1.0250     3.7290 hc         1 6XY       0.063700
     30 H11         -4.5590    -0.4000     4.4660 h1         1 6XY       0.033700
     31 H12         -2.9670    -0.7290     5.1630 h1         1 6XY       0.033700
     32 H13         -4.2640     2.8130     4.5540 h1         1 6XY       0.033200
     33 H14         -5.2210     2.6240     6.0300 h1         1 6XY       0.033200
     34 H15         -5.5420     1.5920     4.6290 h1         1 6XY       0.033200
     35 H16         -5.1510     0.0480     6.8900 h1         1 6XY       0.033200
     36 H17         -4.3570     1.4070     7.6970 h1         1 6XY       0.033200
     37 H18         -3.4560    -0.0820     7.3790 h1         1 6XY       0.033200
     38 H20         -0.5180     0.0040     3.3450 ha         1 6XY       0.156000
     39 H21         -4.5400     0.8360     1.5820 ha         1 6XY       0.140000
     40 Br1          2.3500     0.0020     4.0270 br         1 6XY      -0.091100
@<TRIPOS>BOND
     1    15    16 1   
     2    14    16 1   
     3    16    13 1   
     4    13    12 1   
     5    12    11 1   
     6    11     3 1   
     7    20    10 ar  
     8    20     4 ar  
     9    10     9 ar  
    10     3     4 1   
    11     3    17 1   
    12     4     2 ar  
    13     9     8 ar  
    14     2     8 ar  
    15     2    19 1   
    16    19     1 1   
    17    17     1 ar  
    18    17    18 ar  
    19     1     7 ar  
    20    18     5 ar  
    21     7     6 ar  
    22     5     6 ar  
    23     6    21 1   
    24     7    22 1   
    25     8    23 1   
    26     9    24 1   
    27    10    25 1   
    28    11    26 1   
    29    11    27 1   
    30    12    28 1   
    31    12    29 1   
    32    13    30 1   
    33    13    31 1   
    34    14    32 1   
    35    14    33 1   
    36    14    34 1   
    37    15    35 1   
    38    15    36 1   
    39    15    37 1   
    40    18    38 1   
    41    20    39 1   
    42     5    40 1   
@<TRIPOS>SUBSTRUCTURE
     1 6XY         1 TEMP              0 ****  ****    0 ROOT
