@<TRIPOS>MOLECULE
6XZ
   50    53     1     0     0
SMALL
bcc


@<TRIPOS>ATOM
      1 CAA          0.0000     0.0000     0.0000 c3         1 6XZ       0.244700
      2 OAQ          1.4300     0.0000     0.0000 os         1 6XZ      -0.308900
      3 CAS          2.0470     0.0000     1.2120 ca         1 6XZ       0.129100
      4 CAF          1.2920    -0.0060     2.3750 ca         1 6XZ      -0.149500
      5 CAH          1.9180    -0.0060     3.6050 ca         1 6XZ      -0.103000
      6 CAE          3.4320    -0.0000     1.2830 ca         1 6XZ      -0.149500
      7 CAG          4.0610    -0.0010     2.5130 ca         1 6XZ      -0.103000
      8 CAU          3.3050    -0.0010     3.6780 ca         1 6XZ      -0.019400
      9 NBB          3.9410    -0.0010     4.9250 nh         1 6XZ      -0.366000
     10 CAO          5.4020     0.0040     4.7710 c3         1 6XZ       0.137800
     11 CAM          6.0580     0.0860     6.1510 c3         1 6XZ       0.135300
     12 CAN          3.5030    -1.1430     5.7390 c3         1 6XZ       0.137800
     13 CAL          4.1600    -1.0630     7.1190 c3         1 6XZ       0.135300
     14 NBA          5.6200    -1.0580     6.9660 n3         1 6XZ      -0.534600
     15 CAP          6.2880    -1.0570     8.2740 c3         1 6XZ       0.198000
     16 CAV          6.0100    -2.3600     8.9800 cc         1 6XZ       0.024600
     17 CAK          6.8880    -3.3930     8.9080 cd         1 6XZ      -0.234200
     18 CAX          6.6040    -4.6020     9.5770 c          1 6XZ       0.783800
     19 OAB          7.4000    -5.5210     9.5030 o          1 6XZ      -0.619500
     20 OAR          5.4820    -4.7650    10.2930 os         1 6XZ      -0.261200
     21 CAZ          4.5680    -3.7760    10.4060 ca         1 6XZ       0.153100
     22 CAY          4.7890    -2.5420     9.7680 ca         1 6XZ      -0.160800
     23 CAJ          3.8480    -1.5130     9.8870 ca         1 6XZ      -0.064000
     24 CAI          2.7160    -1.7080    10.6270 ca         1 6XZ      -0.161000
     25 CAT          2.4910    -2.9250    11.2660 ca         1 6XZ       0.137100
     26 OAC          1.3620    -3.1020    11.9990 oh         1 6XZ      -0.490100
     27 CAW          3.4080    -3.9620    11.1510 ca         1 6XZ       0.072100
     28 OAD          3.1820    -5.1480    11.7780 oh         1 6XZ      -0.473100
     29 H1          -0.3610     0.8820     0.5150 h1         1 6XZ      -0.003300
     30 H2          -0.3610     0.0050    -1.0210 h1         1 6XZ      -0.003300
     31 H3          -0.3610    -0.8870     0.5060 h1         1 6XZ      -0.003300
     32 H4           0.2100    -0.0090     2.3180 ha         1 6XZ       0.117500
     33 H5           1.3280    -0.0080     4.5140 ha         1 6XZ       0.116500
     34 H6           4.0210    -0.0010     0.3740 ha         1 6XZ       0.117500
     35 H7           5.1430     0.0000     2.5690 ha         1 6XZ       0.116500
     36 H8           5.7150    -0.9070     4.2770 h1         1 6XZ       0.025950
     37 H9           5.6990     0.8620     4.1800 h1         1 6XZ       0.025950
     38 H10          5.7620     1.0080     6.6370 h1         1 6XZ       0.022450
     39 H11          7.1350     0.0580     6.0400 h1         1 6XZ       0.022450
     40 H12          2.4260    -1.1150     5.8500 h1         1 6XZ       0.025950
     41 H13          3.7980    -2.0660     5.2530 h1         1 6XZ       0.025950
     42 H14          3.8630    -1.9220     7.7090 h1         1 6XZ       0.022450
     43 H15          3.8460    -0.1520     7.6150 h1         1 6XZ       0.022450
     44 H17          7.3560    -0.9430     8.1350 h1         1 6XZ       0.021200
     45 H18          5.9120    -0.2360     8.8710 h1         1 6XZ       0.021200
     46 H19          7.8380    -3.2630     8.4040 ha         1 6XZ       0.144000
     47 H20          4.0160    -0.5640     9.3930 ha         1 6XZ       0.128000
     48 H21          1.9850    -0.9140    10.7110 ha         1 6XZ       0.121000
     49 H22          1.4480    -2.6530    12.8230 ho         1 6XZ       0.414000
     50 H23          2.6760    -5.7100    11.2140 ho         1 6XZ       0.410000
@<TRIPOS>BOND
     1     1     2 1   
     2     1    29 1   
     3     1    30 1   
     4     1    31 1   
     5     2     3 1   
     6     3     4 ar  
     7     3     6 ar  
     8     4     5 ar  
     9     4    32 1   
    10     5     8 ar  
    11     5    33 1   
    12     6     7 ar  
    13     6    34 1   
    14     7     8 ar  
    15     7    35 1   
    16     8     9 1   
    17     9    10 1   
    18     9    12 1   
    19    10    11 1   
    20    10    36 1   
    21    10    37 1   
    22    11    14 1   
    23    11    38 1   
    24    11    39 1   
    25    12    13 1   
    26    12    40 1   
    27    12    41 1   
    28    13    14 1   
    29    13    42 1   
    30    13    43 1   
    31    14    15 1   
    32    15    16 1   
    33    15    44 1   
    34    15    45 1   
    35    16    17 2   
    36    16    22 1   
    37    17    18 1   
    38    17    46 1   
    39    18    19 2   
    40    18    20 1   
    41    20    21 1   
    42    21    22 ar  
    43    21    27 ar  
    44    22    23 ar  
    45    23    24 ar  
    46    23    47 1   
    47    24    25 ar  
    48    24    48 1   
    49    25    26 1   
    50    25    27 ar  
    51    26    49 1   
    52    27    28 1   
    53    28    50 1   
@<TRIPOS>SUBSTRUCTURE
     1 6XZ         1 TEMP              0 ****  ****    0 ROOT
