@<TRIPOS>MOLECULE
molecule
   50    53     1     0     0
SMALL
bcc


@<TRIPOS>ATOM
      1 CAA          0.0000     0.0000     0.0000 c3         1 6XZ       0.129700
      2 OAQ          1.4300     0.0000     0.0000 os         1 6XZ      -0.330900
      3 CAS          2.0470     0.0000     1.2120 ca         1 6XZ       0.119100
      4 CAF          1.2920    -0.0060     2.3750 ca         1 6XZ      -0.166000
      5 CAH          1.9180    -0.0060     3.6050 ca         1 6XZ      -0.128000
      6 CAE          3.4320    -0.0000     1.2830 ca         1 6XZ      -0.166000
      7 CAG          4.0610    -0.0010     2.5130 ca         1 6XZ      -0.128000
      8 CAU          3.3050    -0.0010     3.6780 ca         1 6XZ       0.064600
      9 NBB          3.9410    -0.0010     4.9250 nh         1 6XZ      -0.599000
     10 CAO          5.4020     0.0040     4.7710 c3         1 6XZ       0.165800
     11 CAM          6.0580     0.0860     6.1510 c3         1 6XZ       0.154800
     12 CAN          3.5030    -1.1430     5.7390 c3         1 6XZ       0.165800
     13 CAL          4.1600    -1.0630     7.1190 c3         1 6XZ       0.154800
     14 NBA          5.6200    -1.0580     6.9660 n3         1 6XZ      -0.724600
     15 CAP          6.2880    -1.0570     8.2740 c3         1 6XZ       0.199000
     16 CAV          6.0100    -2.3600     8.9800 cc         1 6XZ       0.018600
     17 CAK          6.8880    -3.3930     8.9080 cd         1 6XZ      -0.247200
     18 CAX          6.6040    -4.6020     9.5770 c          1 6XZ       0.734800
     19 OAB          7.4000    -5.5210     9.5030 o          1 6XZ      -0.570500
     20 OAR          5.4820    -4.7650    10.2930 os         1 6XZ      -0.292200
     21 CAZ          4.5680    -3.7760    10.4060 ca         1 6XZ       0.154100
     22 CAY          4.7890    -2.5420     9.7680 ca         1 6XZ      -0.154800
     23 CAJ          3.8480    -1.5130     9.8870 ca         1 6XZ      -0.080000
     24 CAI          2.7160    -1.7080    10.6270 ca         1 6XZ      -0.181000
     25 CAT          2.4910    -2.9250    11.2660 ca         1 6XZ       0.127100
     26 OAC          1.3620    -3.1020    11.9990 oh         1 6XZ      -0.509100
     27 CAW          3.4080    -3.9620    11.1510 ca         1 6XZ       0.072100
     28 OAD          3.1820    -5.1480    11.7780 oh         1 6XZ      -0.492100
     29 H1          -0.3610     0.8820     0.5150 h1         1 6XZ       0.040700
     30 H2          -0.3610     0.0050    -1.0210 h1         1 6XZ       0.040700
     31 H3          -0.3610    -0.8870     0.5060 h1         1 6XZ       0.040700
     32 H4           0.2100    -0.0090     2.3180 ha         1 6XZ       0.140000
     33 H5           1.3280    -0.0080     4.5140 ha         1 6XZ       0.138000
     34 H6           4.0210    -0.0010     0.3740 ha         1 6XZ       0.140000
     35 H7           5.1430     0.0000     2.5690 ha         1 6XZ       0.138000
     36 H8           5.7150    -0.9070     4.2770 h1         1 6XZ       0.052200
     37 H9           5.6990     0.8620     4.1800 h1         1 6XZ       0.052200
     38 H10          5.7620     1.0080     6.6370 h1         1 6XZ       0.046450
     39 H11          7.1350     0.0580     6.0400 h1         1 6XZ       0.046450
     40 H12          2.4260    -1.1150     5.8500 h1         1 6XZ       0.052200
     41 H13          3.7980    -2.0660     5.2530 h1         1 6XZ       0.052200
     42 H14          3.8630    -1.9220     7.7090 h1         1 6XZ       0.046450
     43 H15          3.8460    -0.1520     7.6150 h1         1 6XZ       0.046450
     44 H17          7.3560    -0.9430     8.1350 h1         1 6XZ       0.050200
     45 H18          5.9120    -0.2360     8.8710 h1         1 6XZ       0.050200
     46 H19          7.8380    -3.2630     8.4040 ha         1 6XZ       0.174000
     47 H20          4.0160    -0.5640     9.3930 ha         1 6XZ       0.151000
     48 H21          1.9850    -0.9140    10.7110 ha         1 6XZ       0.150000
     49 H22          1.4480    -2.6530    12.8230 ho         1 6XZ       0.433000
     50 H23          2.6760    -5.7100    11.2140 ho         1 6XZ       0.429000
@<TRIPOS>BOND
     1     2     1 1
     2     2     3 1
     3     4     3 ar
     4     4     5 ar
     5     3     6 ar
     6     5     8 ar
     7     6     7 ar
     8     8     7 ar
     9     8     9 1
    10     9    10 1
    11     9    12 1
    12    10    11 1
    13    12    13 1
    14    11    14 1
    15    13    14 1
    16    14    15 1
    17    15    16 1
    18    17    16 2
    19    17    18 1
    20    16    22 1
    21    19    18 2
    22    18    20 1
    23    22    23 ar
    24    22    21 ar
    25    23    24 ar
    26    20    21 1
    27    21    27 ar
    28    24    25 ar
    29    27    25 ar
    30    27    28 1
    31    25    26 1
    32     1    29 1
    33     1    30 1
    34     1    31 1
    35     4    32 1
    36     5    33 1
    37     6    34 1
    38     7    35 1
    39    10    36 1
    40    10    37 1
    41    11    38 1
    42    11    39 1
    43    12    40 1
    44    12    41 1
    45    13    42 1
    46    13    43 1
    47    15    44 1
    48    15    45 1
    49    17    46 1
    50    23    47 1
    51    24    48 1
    52    26    49 1
    53    28    50 1
@<TRIPOS>SUBSTRUCTURE
     1 6XZ         1 TEMP              0 ****  ****    0 ROOT
