@<TRIPOS>MOLECULE
molecule
   31    32     1     0     0
SMALL
bcc


@<TRIPOS>ATOM
      1 CAA          0.0000     0.0000     0.0000 c3         1 6Y0      -0.091100
      2 CAH          1.5300     0.0000     0.0000 c3         1 6Y0      -0.084400
      3 CAI          2.0390     0.0000     1.4430 c3         1 6Y0      -0.078400
      4 CAJ          3.5690    -0.0010     1.4440 c3         1 6Y0      -0.049200
      5 CAM          4.0720    -0.0010     2.8640 cc         1 6Y0       0.024600
      6 CAG          4.3990    -1.1610     3.4890 cd         1 6Y0      -0.274200
      7 CAO          4.8660    -1.1340     4.8190 c          1 6Y0       0.737800
      8 OAB          5.1570    -2.1830     5.3670 o          1 6Y0      -0.574500
      9 OAK          4.9990     0.0160     5.4960 os         1 6Y0      -0.293200
     10 CAQ          4.6910     1.2050     4.9340 ca         1 6Y0       0.156100
     11 CAP          4.2240     1.2520     3.6080 ca         1 6Y0      -0.154800
     12 CAF          3.9040     2.4820     3.0210 ca         1 6Y0      -0.068000
     13 CAE          4.0450     3.6350     3.7380 ca         1 6Y0      -0.183000
     14 CAL          4.5070     3.5980     5.0510 ca         1 6Y0       0.128100
     15 OAC          4.6470     4.7550     5.7500 oh         1 6Y0      -0.508100
     16 CAN          4.8350     2.3890     5.6490 ca         1 6Y0       0.072100
     17 OAD          5.2850     2.3600     6.9330 oh         1 6Y0      -0.493100
     18 H1          -0.3610     0.8940     0.4940 hc         1 6Y0       0.035700
     19 H2          -0.3610    -0.8750     0.5270 hc         1 6Y0       0.035700
     20 H3          -0.3610    -0.0190    -1.0210 hc         1 6Y0       0.035700
     21 H4           1.8910    -0.8850    -0.5110 hc         1 6Y0       0.041700
     22 H5           1.8910     0.8850    -0.5110 hc         1 6Y0       0.041700
     23 H6           1.6790     0.8850     1.9530 hc         1 6Y0       0.050200
     24 H7           1.6780    -0.8840     1.9530 hc         1 6Y0       0.050200
     25 H8           3.9300    -0.8860     0.9330 hc         1 6Y0       0.058700
     26 H9           3.9310     0.8830     0.9320 hc         1 6Y0       0.058700
     27 H10          4.3730    -2.0970     2.9430 ha         1 6Y0       0.171000
     28 H11          3.5440     2.5190     2.0000 ha         1 6Y0       0.146000
     29 H12          3.7940     4.5860     3.2840 ha         1 6Y0       0.148000
     30 H13          3.7960     5.0900     5.9780 ho         1 6Y0       0.432000
     31 H14          6.2210     2.4720     6.9410 ho         1 6Y0       0.428000
@<TRIPOS>BOND
     1    15    14 1   
     2    17    16 1   
     3    14    16 ar  
     4    14    13 ar  
     5    16    10 ar  
     6    13    12 ar  
     7    10     9 1   
     8    10    11 ar  
     9     9     7 1   
    10    12    11 ar  
    11    11     5 1   
    12     7     8 2   
    13     7     6 1   
    14     6     5 2   
    15     5     4 1   
    16     3     4 1   
    17     3     2 1   
    18     1     2 1   
    19     1    18 1   
    20     1    19 1   
    21     1    20 1   
    22     2    21 1   
    23     2    22 1   
    24     3    23 1   
    25     3    24 1   
    26     4    25 1   
    27     4    26 1   
    28     6    27 1   
    29    12    28 1   
    30    13    29 1   
    31    15    30 1   
    32    17    31 1   
@<TRIPOS>SUBSTRUCTURE
     1 6Y0         1 TEMP              0 ****  ****    0 ROOT
