@<TRIPOS>MOLECULE
6Y1
   41    44     1     0     0
SMALL
bcc


@<TRIPOS>ATOM
      1 SE05         0.0000     0.0000     0.0000 sh         1 6Y1      -0.395700
      2 C06          1.9600     0.0000     0.0000 ca         1 6Y1       0.183900
      3 C07          2.6590     0.0000     1.2070 ca         1 6Y1      -0.123600
      4 C08          1.9250     0.0010     2.4900 c          1 6Y1       0.581700
      5 N09          2.6030     0.0010     3.6550 ns         1 6Y1      -0.195900
      6 C10          1.8760     0.0010     4.9270 c3         1 6Y1       0.027400
      7 C11          2.8740     0.0000     6.0850 c3         1 6Y1      -0.043067
      8 C12          2.1140     0.0010     7.4130 c3         1 6Y1      -0.031700
      9 C13          1.2340     1.2500     7.4970 c3         1 6Y1      -0.019400
     10 C14          0.9960     1.2500     5.0110 c3         1 6Y1      -0.043067
     11 C15          0.2360     1.2500     6.3390 c3         1 6Y1      -0.031700
     12 C16         -0.6430     0.0010     6.4230 c3         1 6Y1      -0.019400
     13 C17          0.2360    -1.2480     6.3390 c3         1 6Y1      -0.031700
     14 C18          1.2350    -1.2480     7.4990 c3         1 6Y1      -0.019400
     15 C19          0.9960    -1.2480     5.0110 c3         1 6Y1      -0.043067
     16 O20          0.7100     0.0010     2.4950 o          1 6Y1      -0.601100
     17 C21          4.0550     0.0000     1.1990 ca         1 6Y1      -0.085000
     18 C22          4.7340    -0.0010    -0.0020 ca         1 6Y1      -0.102000
     19 C23          4.0350    -0.0010    -1.1960 ca         1 6Y1      -0.079000
     20 C24          2.6510    -0.0060    -1.1940 ca         1 6Y1      -0.104000
     21 H1          -0.4810     1.0840    -0.8240 hs         1 6Y1       0.205800
     22 H2           3.6040     0.0010     3.6510 hn         1 6Y1       0.174500
     23 H3           3.4970     0.8840     6.0250 hc         1 6Y1       0.031700
     24 H4           3.4960    -0.8850     6.0260 hc         1 6Y1       0.031700
     25 H5           2.8210     0.0020     8.2340 hc         1 6Y1       0.024033
     26 H6           0.6960     1.2500     8.4380 hc         1 6Y1       0.016033
     27 H7           1.8560     2.1350     7.4380 hc         1 6Y1       0.016033
     28 H8           0.2880     1.2490     4.1900 hc         1 6Y1       0.031700
     29 H9           1.6180     2.1350     4.9510 hc         1 6Y1       0.031700
     30 H10         -0.3870     2.1340     6.3980 hc         1 6Y1       0.024033
     31 H11         -1.1820     0.0010     7.3630 hc         1 6Y1       0.016033
     32 H12         -1.3500     0.0010     5.6020 hc         1 6Y1       0.016033
     33 H13         -0.3870    -2.1330     6.3990 hc         1 6Y1       0.024033
     34 H14          0.6960    -1.2470     8.4390 hc         1 6Y1       0.016033
     35 H15          1.8570    -2.1330     7.4390 hc         1 6Y1       0.016033
     36 H16          1.6190    -2.1330     4.9510 hc         1 6Y1       0.031700
     37 H17          0.2900    -1.2480     4.1900 hc         1 6Y1       0.031700
     38 H18          4.6040     0.0000     2.1330 ha         1 6Y1       0.106000
     39 H19          5.8180     0.0020    -0.0100 ha         1 6Y1       0.107000
     40 H20          4.5730    -0.0030    -2.1360 ha         1 6Y1       0.106000
     41 H21          2.1100    -0.0060    -2.1320 ha         1 6Y1       0.115000
@<TRIPOS>BOND
     1     1     2 1   
     2     1    21 1   
     3     2     3 ar  
     4     2    20 ar  
     5     3     4 1   
     6     3    17 ar  
     7     4     5 1   
     8     4    16 2   
     9     5     6 1   
    10     5    22 1   
    11     6     7 1   
    12     6    10 1   
    13     6    15 1   
    14     7     8 1   
    15     7    23 1   
    16     7    24 1   
    17     8     9 1   
    18     8    14 1   
    19     8    25 1   
    20     9    11 1   
    21     9    26 1   
    22     9    27 1   
    23    10    11 1   
    24    10    28 1   
    25    10    29 1   
    26    11    12 1   
    27    11    30 1   
    28    12    13 1   
    29    12    31 1   
    30    12    32 1   
    31    13    14 1   
    32    13    15 1   
    33    13    33 1   
    34    14    34 1   
    35    14    35 1   
    36    15    36 1   
    37    15    37 1   
    38    17    18 ar  
    39    17    38 1   
    40    18    19 ar  
    41    18    39 1   
    42    19    20 ar  
    43    19    40 1   
    44    20    41 1   
@<TRIPOS>SUBSTRUCTURE
     1 6Y1         1 TEMP              0 ****  ****    0 ROOT
