@<TRIPOS>MOLECULE
molecule
   41    44     1     0     0
SMALL
bcc


@<TRIPOS>ATOM
      1 SE05         0.0000     0.0000     0.0000 sh         1 6Y1      -0.395700
      2 C06          1.9600     0.0000     0.0000 ca         1 6Y1       0.167900
      3 C07          2.6590     0.0000     1.2070 ca         1 6Y1      -0.121600
      4 C08          1.9250     0.0010     2.4900 c          1 6Y1       0.662700
      5 N09          2.6030     0.0010     3.6550 ns         1 6Y1      -0.579900
      6 C10          1.8760     0.0010     4.9270 c3         1 6Y1       0.138400
      7 C11          2.8740     0.0000     6.0850 c3         1 6Y1      -0.082733
      8 C12          2.1140     0.0010     7.4130 c3         1 6Y1      -0.061367
      9 C13          1.2340     1.2500     7.4970 c3         1 6Y1      -0.070733
     10 C14          0.9960     1.2500     5.0110 c3         1 6Y1      -0.082733
     11 C15          0.2360     1.2500     6.3390 c3         1 6Y1      -0.061367
     12 C16         -0.6430     0.0010     6.4230 c3         1 6Y1      -0.070733
     13 C17          0.2360    -1.2480     6.3390 c3         1 6Y1      -0.061367
     14 C18          1.2350    -1.2480     7.4990 c3         1 6Y1      -0.070733
     15 C19          0.9960    -1.2480     5.0110 c3         1 6Y1      -0.082733
     16 O20          0.7100     0.0010     2.4950 o          1 6Y1      -0.571100
     17 C21          4.0550     0.0000     1.1990 ca         1 6Y1      -0.104000
     18 C22          4.7340    -0.0010    -0.0020 ca         1 6Y1      -0.133000
     19 C23          4.0350    -0.0010    -1.1960 ca         1 6Y1      -0.106000
     20 C24          2.6510    -0.0060    -1.1940 ca         1 6Y1      -0.129000
     21 H1          -0.4810     1.0840    -0.8240 hs         1 6Y1       0.226800
     22 H2           3.6040     0.0010     3.6510 hn         1 6Y1       0.309500
     23 H3           3.4970     0.8840     6.0250 hc         1 6Y1       0.055200
     24 H4           3.4960    -0.8850     6.0260 hc         1 6Y1       0.055200
     25 H5           2.8210     0.0020     8.2340 hc         1 6Y1       0.050033
     26 H6           0.6960     1.2500     8.4380 hc         1 6Y1       0.042367
     27 H7           1.8560     2.1350     7.4380 hc         1 6Y1       0.042367
     28 H8           0.2880     1.2490     4.1900 hc         1 6Y1       0.055200
     29 H9           1.6180     2.1350     4.9510 hc         1 6Y1       0.055200
     30 H10         -0.3870     2.1340     6.3980 hc         1 6Y1       0.050033
     31 H11         -1.1820     0.0010     7.3630 hc         1 6Y1       0.042367
     32 H12         -1.3500     0.0010     5.6020 hc         1 6Y1       0.042367
     33 H13         -0.3870    -2.1330     6.3990 hc         1 6Y1       0.050033
     34 H14          0.6960    -1.2470     8.4390 hc         1 6Y1       0.042367
     35 H15          1.8570    -2.1330     7.4390 hc         1 6Y1       0.042367
     36 H16          1.6190    -2.1330     4.9510 hc         1 6Y1       0.055200
     37 H17          0.2900    -1.2480     4.1900 hc         1 6Y1       0.055200
     38 H18          4.6040     0.0000     2.1330 ha         1 6Y1       0.131000
     39 H19          5.8180     0.0020    -0.0100 ha         1 6Y1       0.136000
     40 H20          4.5730    -0.0030    -2.1360 ha         1 6Y1       0.137000
     41 H21          2.1100    -0.0060    -2.1320 ha         1 6Y1       0.142000
@<TRIPOS>BOND
     1    20    19 ar  
     2    20     2 ar  
     3     1     2 1   
     4    19    18 ar  
     5     2     3 ar  
     6    18    17 ar  
     7     3    17 ar  
     8     3     4 1   
     9    16     4 2   
    10     4     5 1   
    11     5     6 1   
    12    10     6 1   
    13    10    11 1   
    14     6     7 1   
    15     6    15 1   
    16     7     8 1   
    17    11     9 1   
    18    11    12 1   
    19     9     8 1   
    20     8    14 1   
    21    15    13 1   
    22    12    13 1   
    23    14    13 1   
    24     1    21 1   
    25     5    22 1   
    26     7    23 1   
    27     7    24 1   
    28     8    25 1   
    29     9    26 1   
    30     9    27 1   
    31    10    28 1   
    32    10    29 1   
    33    11    30 1   
    34    12    31 1   
    35    12    32 1   
    36    13    33 1   
    37    14    34 1   
    38    14    35 1   
    39    15    36 1   
    40    15    37 1   
    41    17    38 1   
    42    18    39 1   
    43    19    40 1   
    44    20    41 1   
@<TRIPOS>SUBSTRUCTURE
     1 6Y1         1 TEMP              0 ****  ****    0 ROOT
