@<TRIPOS>MOLECULE
6Y3
   29    30     1     0     0
SMALL
bcc


@<TRIPOS>ATOM
      1 C10          0.0000     0.0000     0.0000 ca         1 6Y3      -0.079000
      2 SE07         4.0360    -0.0080     1.1910 sh         1 6Y3      -0.393700
      3 C08          2.0750     0.0000     1.1930 ca         1 6Y3       0.184900
      4 C09          1.3830     0.0000     0.0000 ca         1 6Y3      -0.104000
      5 C11         -0.6990    -0.0000     1.1940 ca         1 6Y3      -0.101000
      6 C12         -0.0190    -0.0060     2.3940 ca         1 6Y3      -0.086000
      7 C13          1.3770    -0.0110     2.4010 ca         1 6Y3      -0.123600
      8 C14          2.1130    -0.0120     3.6830 c          1 6Y3       0.561700
      9 N15          1.4360    -0.0240     4.8490 ns         1 6Y3      -0.032100
     10 C16          2.1300    -0.1220     6.0610 ca         1 6Y3      -0.157400
     11 C17          1.5810    -0.8340     7.1200 ca         1 6Y3      -0.062000
     12 C18          2.2650    -0.9320     8.3150 ca         1 6Y3      -0.173500
     13 C19          3.5030    -0.3160     8.4590 ca         1 6Y3       0.047600
     14 N20          4.1960    -0.4150     9.6700 nv         1 6Y3      -0.449200
     15 C21          4.0520     0.3960     7.4000 ca         1 6Y3      -0.173500
     16 C22          3.3690     0.4880     6.2040 ca         1 6Y3      -0.062000
     17 O23          3.3290    -0.0020     3.6870 o          1 6Y3      -0.590100
     18 H1          -0.5390     0.0020    -0.9400 ha         1 6Y3       0.106000
     19 H2           4.5210     1.0770     0.3710 hs         1 6Y3       0.204800
     20 H3           1.9230     0.0000    -0.9390 ha         1 6Y3       0.116000
     21 H4          -1.7820     0.0010     1.1870 ha         1 6Y3       0.107000
     22 H5          -0.5670    -0.0110     3.3290 ha         1 6Y3       0.106000
     23 H6           0.4390     0.0690     4.8500 hn         1 6Y3       0.164500
     24 H7           0.6170    -1.3140     7.0080 ha         1 6Y3       0.120500
     25 H8           1.8370    -1.4880     9.1400 ha         1 6Y3       0.108500
     26 H9           3.8000    -0.9290    10.4330 hn         1 6Y3       0.264800
     27 H10          5.0870     0.0280     9.7740 hn         1 6Y3       0.264800
     28 H11          5.0170     0.8750     7.5110 ha         1 6Y3       0.108500
     29 H12          3.7970     1.0440     5.3790 ha         1 6Y3       0.120500
@<TRIPOS>BOND
     1     1     4 ar  
     2     1     5 ar  
     3     1    18 1   
     4     2     3 1   
     5     2    19 1   
     6     3     4 ar  
     7     3     7 ar  
     8     4    20 1   
     9     5     6 ar  
    10     5    21 1   
    11     6     7 ar  
    12     6    22 1   
    13     7     8 1   
    14     8     9 1   
    15     8    17 2   
    16     9    10 1   
    17     9    23 1   
    18    10    11 ar  
    19    10    16 ar  
    20    11    12 ar  
    21    11    24 1   
    22    12    13 ar  
    23    12    25 1   
    24    13    14 1   
    25    13    15 ar  
    26    14    26 1   
    27    14    27 1   
    28    15    16 ar  
    29    15    28 1   
    30    16    29 1   
@<TRIPOS>SUBSTRUCTURE
     1 6Y3         1 TEMP              0 ****  ****    0 ROOT
