@<TRIPOS>MOLECULE
6Y4
   55    58     1     0     0
SMALL
bcc


@<TRIPOS>ATOM
      1 N4           0.0000     0.0000     0.0000 na         1 6Y4       0.616300
      2 C8           1.3520     0.0000     0.0000 cc         1 6Y4      -0.222300
      3 N3           2.5010    -0.4300     3.5140 nh         1 6Y4      -0.450300
      4 C5           3.2800     1.6170     6.3200 ca         1 6Y4       0.482200
      5 C4           3.2270     0.1780     4.5230 ca         1 6Y4       0.698900
      6 C3           5.2390     0.4610     5.6060 ca         1 6Y4       0.317600
      7 C6           2.9830     0.0000     2.1820 c3         1 6Y4       0.270100
      8 C7           1.7640     0.0000     1.2860 cd         1 6Y4      -0.357600
      9 C2           4.6310     1.3500     6.4790 ca         1 6Y4      -0.312900
     10 C1           5.4210     2.0110     7.5780 c3         1 6Y4       0.272700
     11 N2           2.6150     1.0180     5.3440 nb         1 6Y4      -0.635000
     12 N1           4.5190    -0.0940     4.6450 nb         1 6Y4      -0.565000
     13 C9           0.6260     0.0010     2.1050 cd         1 6Y4       0.354600
     14 C14         -0.8260    -0.0010    -1.1330 ca         1 6Y4      -0.165200
     15 O3          -5.2840    -0.3830    -3.0890 o          1 6Y4      -0.583300
     16 C15         -2.2030     0.1100    -0.9920 ca         1 6Y4       0.010000
     17 C11          0.2510    -0.9820     4.3670 c3         1 6Y4      -0.038700
     18 C10          1.0860     0.0020     3.5450 c3         1 6Y4       0.103200
     19 C16         -3.0140     0.1090    -2.1090 ca         1 6Y4      -0.142500
     20 C17         -5.0780     2.0350    -1.9810 c3         1 6Y4       0.028700
     21 C21          6.7060     0.1460     5.7390 c3         1 6Y4       0.540600
     22 C20         -0.2680    -0.1080    -2.4000 ca         1 6Y4      -0.077000
     23 C19         -1.0840    -0.1090    -3.5140 ca         1 6Y4      -0.110000
     24 C18         -2.4540    -0.0040    -3.3690 ca         1 6Y4      -0.004000
     25 F3           7.4420     1.3360     5.7230 f          1 6Y4      -0.200300
     26 F1           6.9320    -0.5260     6.9440 f          1 6Y4      -0.200300
     27 F2           7.1070    -0.6640     4.6710 f          1 6Y4      -0.200300
     28 O1           4.5640     2.8740     8.3290 oh         1 6Y4      -0.594800
     29 N5          -0.4310    -0.0040     1.3340 nc         1 6Y4      -0.609800
     30 S           -4.7600     0.2500    -1.9300 sy         1 6Y4       0.875300
     31 O2          -5.0220    -0.2660    -0.6320 o          1 6Y4      -0.583300
     32 H1           1.9890     0.0790    -0.8730 h4         1 6Y4       0.149000
     33 H2           2.7750     2.3050     6.9860 h4         1 6Y4       0.014100
     34 H3           3.3610     1.0120     2.2560 h1         1 6Y4       0.028200
     35 H4           3.6880    -0.7340     1.8110 h1         1 6Y4       0.028200
     36 H5           5.8340     1.2530     8.2330 h1         1 6Y4       0.012200
     37 H6           6.2270     2.5910     7.1440 h1         1 6Y4       0.012200
     38 H7           0.7620    -0.0440     6.2320 hc         1 6Y4       0.009367
     39 H8           0.1780    -1.7070     6.3890 hc         1 6Y4       0.009367
     40 H9           1.8110    -1.3970     5.7860 hc         1 6Y4       0.009367
     41 H10         -2.6410     0.1980    -0.0050 ha         1 6Y4       0.153000
     42 H11         -1.7500    -1.0020     3.5840 hc         1 6Y4       0.009367
     43 H12         -1.2470     0.5540     4.2570 hc         1 6Y4       0.009367
     44 H13         -1.6560    -0.7850     5.3370 hc         1 6Y4       0.009367
     45 H14          0.3120    -1.9680     3.9210 hc         1 6Y4       0.037700
     46 H15          1.0110     1.0010     3.9580 h1         1 6Y4       0.069700
     47 H16         -4.6710     2.4480    -2.8960 h1         1 6Y4       0.060033
     48 H17         -6.1460     2.2120    -1.9490 h1         1 6Y4       0.060033
     49 H18         -4.6070     2.5110    -1.1300 h1         1 6Y4       0.060033
     50 H19          0.8060    -0.1900    -2.5150 ha         1 6Y4       0.114000
     51 H20         -0.6490    -0.1940    -4.5020 ha         1 6Y4       0.113000
     52 H21         -3.0920    -0.0050    -4.2450 ha         1 6Y4       0.126000
     53 H22          5.0590     3.2890     9.0160 ho         1 6Y4       0.403000
     54 C13          0.7900    -1.0360     5.7980 c3         1 6Y4      -0.007600
     55 C12         -1.2070    -0.5200     4.3880 c3         1 6Y4      -0.007600
@<TRIPOS>BOND
     1     1     2 1   
     2     1    14 1   
     3     1    29 1   
     4     2     8 2   
     5     2    32 1   
     6     3     5 1   
     7     3     7 1   
     8     3    18 1   
     9     4     9 ar  
    10     4    11 ar  
    11     4    33 1   
    12     5    11 ar  
    13     5    12 ar  
    14     6     9 ar  
    15     6    12 ar  
    16     6    21 1   
    17     7     8 1   
    18     7    34 1   
    19     7    35 1   
    20     8    13 1   
    21     9    10 1   
    22    10    28 1   
    23    10    36 1   
    24    10    37 1   
    25    13    18 1   
    26    13    29 2   
    27    14    16 ar  
    28    14    22 ar  
    29    15    30 2   
    30    16    19 ar  
    31    16    41 1   
    32    17    18 1   
    33    17    45 1   
    34    17    54 1   
    35    17    55 1   
    36    18    46 1   
    37    19    24 ar  
    38    19    30 1   
    39    20    30 1   
    40    20    47 1   
    41    20    48 1   
    42    20    49 1   
    43    21    25 1   
    44    21    26 1   
    45    21    27 1   
    46    22    23 ar  
    47    22    50 1   
    48    23    24 ar  
    49    23    51 1   
    50    24    52 1   
    51    28    53 1   
    52    30    31 2   
    53    38    54 1   
    54    39    54 1   
    55    40    54 1   
    56    42    55 1   
    57    43    55 1   
    58    44    55 1   
@<TRIPOS>SUBSTRUCTURE
     1 6Y4         1 TEMP              0 ****  ****    0 ROOT
