@<TRIPOS>MOLECULE
molecule
   55    58     1     0     0
SMALL
bcc


@<TRIPOS>ATOM
      1 N4           0.0000     0.0000     0.0000 na         1 6Y4       0.145300
      2 C8           1.3520     0.0000     0.0000 cc         1 6Y4      -0.075300
      3 N3           2.5010    -0.4300     3.5140 nh         1 6Y4      -0.650300
      4 C5           3.2800     1.6170     6.3200 ca         1 6Y4       0.505200
      5 C4           3.2270     0.1780     4.5230 ca         1 6Y4       0.865900
      6 C3           5.2390     0.4610     5.6060 ca         1 6Y4       0.395600
      7 C6           2.9830     0.0000     2.1820 c3         1 6Y4       0.255100
      8 C7           1.7640     0.0000     1.2860 cc         1 6Y4      -0.340600
      9 C2           4.6310     1.3500     6.4790 ca         1 6Y4      -0.321900
     10 C1           5.4210     2.0110     7.5780 c3         1 6Y4       0.182700
     11 N2           2.6150     1.0180     5.3440 nb         1 6Y4      -0.757000
     12 N1           4.5190    -0.0940     4.6450 nb         1 6Y4      -0.701000
     13 C9           0.6260     0.0010     2.1050 cc         1 6Y4       0.331600
     14 C14         -0.8260    -0.0010    -1.1330 ca         1 6Y4       0.025800
     15 O3          -5.2840    -0.3830    -3.0890 o          1 6Y4      -0.612800
     16 C15         -2.2030     0.1100    -0.9920 ca         1 6Y4      -0.032000
     17 C11          0.2510    -0.9820     4.3670 c3         1 6Y4      -0.057700
     18 C10          1.0860     0.0020     3.5450 c3         1 6Y4       0.155200
     19 C16         -3.0140     0.1090    -2.1090 ca         1 6Y4      -0.279500
     20 C17         -5.0780     2.0350    -1.9810 c3         1 6Y4      -0.226300
     21 C21          6.7060     0.1460     5.7390 c3         1 6Y4       0.583600
     22 C20         -0.2680    -0.1080    -2.4000 ca         1 6Y4      -0.110000
     23 C19         -1.0840    -0.1090    -3.5140 ca         1 6Y4      -0.126000
     24 C18         -2.4540    -0.0040    -3.3690 ca         1 6Y4      -0.046000
     25 F3           7.4420     1.3360     5.7230 f          1 6Y4      -0.211300
     26 F1           6.9320    -0.5260     6.9440 f          1 6Y4      -0.211300
     27 F2           7.1070    -0.6640     4.6710 f          1 6Y4      -0.211300
     28 O1           4.5640     2.8740     8.3290 oh         1 6Y4      -0.614800
     29 N5          -0.4310    -0.0040     1.3340 nd         1 6Y4      -0.469800
     30 S           -4.7600     0.2500    -1.9300 sy         1 6Y4       1.193300
     31 O2          -5.0220    -0.2660    -0.6320 o          1 6Y4      -0.612800
     32 H1           1.9890     0.0790    -0.8730 h4         1 6Y4       0.175000
     33 H2           2.7750     2.3050     6.9860 h4         1 6Y4       0.062100
     34 H3           3.3610     1.0120     2.2560 h1         1 6Y4       0.068200
     35 H4           3.6880    -0.7340     1.8110 h1         1 6Y4       0.068200
     36 H5           5.8340     1.2530     8.2330 h1         1 6Y4       0.049700
     37 H6           6.2270     2.5910     7.1440 h1         1 6Y4       0.049700
     38 H7           0.7620    -0.0440     6.2320 hc         1 6Y4       0.039367
     39 H8           0.1780    -1.7070     6.3890 hc         1 6Y4       0.039367
     40 H9           1.8110    -1.3970     5.7860 hc         1 6Y4       0.039367
     41 H10         -2.6410     0.1980    -0.0050 ha         1 6Y4       0.180000
     42 H11         -1.7500    -1.0020     3.5840 hc         1 6Y4       0.039367
     43 H12         -1.2470     0.5540     4.2570 hc         1 6Y4       0.039367
     44 H13         -1.6560    -0.7850     5.3370 hc         1 6Y4       0.039367
     45 H14          0.3120    -1.9680     3.9210 hc         1 6Y4       0.066700
     46 H15          1.0110     1.0010     3.9580 h1         1 6Y4       0.096700
     47 H16         -4.6710     2.4480    -2.8960 h1         1 6Y4       0.099367
     48 H17         -6.1460     2.2120    -1.9490 h1         1 6Y4       0.099367
     49 H18         -4.6070     2.5110    -1.1300 h1         1 6Y4       0.099367
     50 H19          0.8060    -0.1900    -2.5150 ha         1 6Y4       0.140000
     51 H20         -0.6490    -0.1940    -4.5020 ha         1 6Y4       0.144000
     52 H21         -3.0920    -0.0050    -4.2450 ha         1 6Y4       0.155000
     53 H22          5.0590     3.2890     9.0160 ho         1 6Y4       0.417000
     54 C13          0.7900    -1.0360     5.7980 c3         1 6Y4      -0.089100
     55 C12         -1.2070    -0.5200     4.3880 c3         1 6Y4      -0.089100
@<TRIPOS>BOND
     1    28    10 1   
     2    10     9 1   
     3    26    21 1   
     4    25    21 1   
     5     9     4 ar  
     6     9     6 ar  
     7    21     6 1   
     8    21    27 1   
     9     4    11 ar  
    10     6    12 ar  
    11    11     5 ar  
    12    12     5 ar  
    13     5     3 1   
    14     3    18 1   
    15     3     7 1   
    16    18    17 1   
    17    18    13 1   
    18    17    55 1   
    19    17    54 1   
    20     7     8 1   
    21    13     8 1   
    22    13    29 2   
    23     8     2 2   
    24    29     1 1   
    25     2     1 1   
    26     1    14 1   
    27    14    22 ar  
    28    14    16 ar  
    29    22    23 ar  
    30    16    19 ar  
    31    23    24 ar  
    32    19    24 ar  
    33    19    30 1   
    34    20    30 1   
    35    15    30 2   
    36    30    31 2   
    37     2    32 1   
    38     4    33 1   
    39     7    34 1   
    40     7    35 1   
    41    10    36 1   
    42    10    37 1   
    43    54    38 1   
    44    54    39 1   
    45    54    40 1   
    46    16    41 1   
    47    55    42 1   
    48    55    43 1   
    49    55    44 1   
    50    17    45 1   
    51    18    46 1   
    52    20    47 1   
    53    20    48 1   
    54    20    49 1   
    55    22    50 1   
    56    23    51 1   
    57    24    52 1   
    58    28    53 1   
@<TRIPOS>SUBSTRUCTURE
     1 6Y4         1 TEMP              0 ****  ****    0 ROOT
