@<TRIPOS>MOLECULE
molecule
   15    14     1     0     0
SMALL
bcc


@<TRIPOS>ATOM
      1 O10          0.0000     0.0000     0.0000 o          1 6Y5      -0.547100
      2 C5           1.2080     0.0000     0.0000 c          1 6Y5       0.474100
      3 C6           1.9530     0.0000     1.2910 c          1 6Y5       0.806600
      4 O8           3.1660    -0.0000     1.2920 o          1 6Y5      -0.814300
      5 O7           1.2790    -0.0000     2.4560 o          1 6Y5      -0.814300
      6 C4           1.9620    -0.0060    -1.3050 c3         1 6Y5      -0.188400
      7 C3           0.9690    -0.0130    -2.4680 c3         1 6Y5      -0.109400
      8 C2           1.7340    -0.0190    -3.7920 c3         1 6Y5       0.152900
      9 F1           0.8250    -0.0240    -4.8560 f          1 6Y5      -0.270300
     10 H2           2.5840     0.8780    -1.3670 hc         1 6Y5       0.061200
     11 H3           2.5850    -0.8910    -1.3580 hc         1 6Y5       0.061200
     12 H4           0.3460    -0.8970    -2.4060 hc         1 6Y5       0.058700
     13 H5           0.3450     0.8720    -2.4150 hc         1 6Y5       0.058700
     14 H6           2.3570    -0.9040    -3.8450 h1         1 6Y5       0.034700
     15 H7           2.3570     0.8650    -3.8540 h1         1 6Y5       0.034700
@<TRIPOS>BOND
     1     8     9 1   
     2     8     7 1   
     3     1     2 2   
     4     7     6 1   
     5     2     6 1   
     6     2     3 1   
     7     4     3 1   
     8     3     5 1   
     9     6    10 1   
    10     6    11 1   
    11     7    12 1   
    12     7    13 1   
    13     8    14 1   
    14     8    15 1   
@<TRIPOS>SUBSTRUCTURE
     1 6Y5         1 TEMP              0 ****  ****    0 ROOT
