@<TRIPOS>MOLECULE
molecule
   54    55     1     0     0
SMALL
bcc


@<TRIPOS>ATOM
      1 O1A          0.0000     0.0000     0.0000 o          1 6Y6      -0.805800
      2 O1B          1.9570    -0.0130    -1.0520 o          1 6Y6      -0.805800
      3 C01          1.3480     0.0000     0.0000 c          1 6Y6       0.888800
      4 C02          2.0840     0.0000     1.2770 ce         1 6Y6       0.103900
      5 C03          3.4080     0.0010     1.2430 c2         1 6Y6      -0.373200
      6 C04          4.2440     0.0110     2.4940 c3         1 6Y6       0.107200
      7 N04          5.3640    -0.9230     2.3410 na         1 6Y6       0.152400
      8 C05          3.3830    -0.4160     3.6870 c3         1 6Y6       0.063700
      9 N05          4.0850    -0.1150     4.9360 ns         1 6Y6      -0.585900
     10 C06          2.0640     0.3660     3.6310 c3         1 6Y6       0.144100
     11 O06          1.3750     0.0060     2.4310 os         1 6Y6      -0.278900
     12 C07          1.2040     0.0140     4.8470 c3         1 6Y6       0.167100
     13 O07          1.0210    -1.4020     4.9070 oh         1 6Y6      -0.575800
     14 C08         -0.1580     0.6990     4.7230 c3         1 6Y6       0.125100
     15 O08          0.0240     2.1150     4.6640 oh         1 6Y6      -0.615800
     16 C09         -1.0180     0.3470     5.9390 c3         1 6Y6       0.099400
     17 O09         -2.3290     0.8900     5.7690 oh         1 6Y6      -0.607800
     18 C41          5.3290    -2.0990     1.6710 cc         1 6Y6      -0.212600
     19 N41          6.5500    -0.7630     2.8140 nc         1 6Y6      -0.231800
     20 C42          6.5690    -2.6310     1.7820 cd         1 6Y6       0.241600
     21 N42          7.2920    -1.7650     2.5010 nd         1 6Y6      -0.383000
     22 C43          7.0420    -3.9410     1.2060 c3         1 6Y6       0.135100
     23 O44          5.9670    -4.5670     0.5020 os         1 6Y6      -0.421600
     24 C45          6.3120    -5.8240    -0.0850 c3         1 6Y6       0.134700
     25 C51          4.9780    -0.9910     5.4360 c          1 6Y6       0.664100
     26 O52          5.2010    -2.0310     4.8510 o          1 6Y6      -0.592100
     27 C52          5.7000    -0.6810     6.7220 c3         1 6Y6      -0.146700
     28 C53          6.6500    -1.8310     7.0650 c3         1 6Y6      -0.081100
     29 C54          6.5040     0.6100     6.5560 c3         1 6Y6      -0.081100
     30 H2           3.9070     0.0010     0.2810 ha         1 6Y6       0.179000
     31 H3           4.6230     1.0110     2.6640 h1         1 6Y6       0.074700
     32 H4           3.1780    -1.4780     3.6250 h1         1 6Y6       0.118700
     33 H5           3.9180     0.7520     5.4070 hn         1 6Y6       0.306500
     34 H6           2.2730     1.4290     3.6230 h1         1 6Y6       0.064700
     35 H7           1.6980     0.3530     5.7490 h1         1 6Y6       0.031700
     36 H8           0.8840    -1.6630     5.8030 ho         1 6Y6       0.390000
     37 H9          -0.6530     0.3600     3.8210 h1         1 6Y6       0.105700
     38 H10         -0.7860     2.5260     4.4110 ho         1 6Y6       0.423000
     39 H11         -1.0840    -0.7300     6.0350 h1         1 6Y6       0.020700
     40 H12         -0.5680     0.7620     6.8320 h1         1 6Y6       0.020700
     41 H13         -2.8610     0.6690     6.5160 ho         1 6Y6       0.397000
     42 H14          4.4800    -2.5280     1.1530 h4         1 6Y6       0.207000
     43 H15          7.3750    -4.5890     2.0080 h1         1 6Y6       0.029700
     44 H16          7.8640    -3.7590     0.5240 h1         1 6Y6       0.029700
     45 H17          5.4630    -6.2110    -0.6360 h1         1 6Y6       0.024033
     46 H18          7.1490    -5.6890    -0.7600 h1         1 6Y6       0.024033
     47 H19          6.5870    -6.5240     0.6950 h1         1 6Y6       0.024033
     48 H20          4.9790    -0.5570     7.5210 hc         1 6Y6       0.048700
     49 H21          7.0860    -1.6600     8.0420 hc         1 6Y6       0.041200
     50 H22          6.0980    -2.7640     7.0750 hc         1 6Y6       0.041200
     51 H23          7.4360    -1.8840     6.3220 hc         1 6Y6       0.041200
     52 H24          7.1000     0.5510     5.6540 hc         1 6Y6       0.041200
     53 H25          7.1550     0.7430     7.4120 hc         1 6Y6       0.041200
     54 H26          5.8250     1.4520     6.4860 hc         1 6Y6       0.041200
@<TRIPOS>BOND
     1    17    16 1
     2    29    27 1
     3    16    14 1
     4    27    28 1
     5    27    25 1
     6    13    12 1
     7    14    12 1
     8    14    15 1
     9    12    10 1
    10    26    25 2
    11    25     9 1
    12     9     8 1
    13    10     8 1
    14    10    11 1
    15     8     6 1
    16    11     4 1
    17     6     7 1
    18     6     5 1
    19     7    18 1
    20     7    19 1
    21    18    20 2
    22    19    21 2
    23    20    21 1
    24    20    22 1
    25     4     5 2
    26     4     3 1
    27    22    23 1
    28     2     3 1
    29    23    24 1
    30     3     1 1
    31     5    30 1
    32     6    31 1
    33     8    32 1
    34     9    33 1
    35    10    34 1
    36    12    35 1
    37    13    36 1
    38    14    37 1
    39    15    38 1
    40    16    39 1
    41    16    40 1
    42    17    41 1
    43    18    42 1
    44    22    43 1
    45    22    44 1
    46    24    45 1
    47    24    46 1
    48    24    47 1
    49    27    48 1
    50    28    49 1
    51    28    50 1
    52    28    51 1
    53    29    52 1
    54    29    53 1
    55    29    54 1
@<TRIPOS>SUBSTRUCTURE
     1 6Y6         1 TEMP              0 ****  ****    0 ROOT
