@<TRIPOS>MOLECULE
molecule
   49    53     1     0     0
SMALL
bcc


@<TRIPOS>ATOM
      1 C1           0.0000     0.0000     0.0000 ca         1 6Y7      -0.070200
      2 C2          -0.6640     0.0090    -2.3820 cc         1 6Y7      -0.230500
      3 C4           0.6260     1.3870    -5.4640 c3         1 6Y7       0.079300
      4 C6          -0.9610    -1.0200    -3.2880 cc         1 6Y7       0.351200
      5 C7          -2.2080     0.0020    -0.4540 cd         1 6Y7       0.075700
      6 C8          -3.4950     0.0070    -1.2380 cx         1 6Y7      -0.121500
      7 C9          -4.7710     0.4140    -0.4980 cx         1 6Y7      -0.123900
      8 C10         -4.5430    -1.0490    -0.8810 cx         1 6Y7      -0.123900
      9 C11         -2.1190    -0.0010     0.8900 cc         1 6Y7      -0.073600
     10 C12         -3.7630    -1.7230     2.2830 ca         1 6Y7      -0.068100
     11 C13         -2.9870    -2.6680     1.6240 ca         1 6Y7      -0.138000
     12 Cl           3.8140    -0.0010     1.1990 cl         1 6Y7      -0.108400
     13 C22          2.0770     0.0000     1.1990 ca         1 6Y7      -0.005600
     14 C            1.3930     0.0000     0.0000 ca         1 6Y7       0.124900
     15 F            2.0710    -0.0000    -1.1680 f          1 6Y7      -0.138900
     16 C21          1.3890    -0.0010     2.4060 ca         1 6Y7      -0.133000
     17 C20          0.0230    -0.0010     2.4260 ca         1 6Y7      -0.075000
     18 C19         -0.6900    -0.0010     1.2260 ca         1 6Y7      -0.044800
     19 S           -3.4630    -0.0050     2.0300 ss         1 6Y7      -0.173500
     20 C18         -4.7800    -2.1330     3.1380 ca         1 6Y7       0.175900
     21 F1          -5.5400    -1.2160     3.7760 f          1 6Y7      -0.112900
     22 C16         -5.0130    -3.4960     3.3330 ca         1 6Y7      -0.129600
     23 C17         -6.0900    -3.9420     4.2370 c          1 6Y7       0.880200
     24 O1          -6.7770    -3.1220     4.8150 o          1 6Y7      -0.824300
     25 O           -6.3120    -5.2580     4.4240 o          1 6Y7      -0.824300
     26 C15         -4.2200    -4.4360     2.6680 ca         1 6Y7      -0.071000
     27 C14         -3.2180    -4.0170     1.8190 ca         1 6Y7      -0.169000
     28 N           -0.9460     0.0050    -1.0030 na         1 6Y7       0.044500
     29 N2          -0.5430    -0.6570    -4.4740 nd         1 6Y7      -0.508800
     30 N1           0.0340     0.6150    -4.3680 na         1 6Y7       0.064400
     31 C3          -0.0510     1.0060    -3.0700 cd         1 6Y7      -0.090300
     32 C5           1.7020     0.5490    -6.1560 c3         1 6Y7      -0.111100
     33 H1           1.0720     2.2920    -5.0690 h1         1 6Y7       0.057200
     34 H2          -0.1440     1.6470    -6.1800 h1         1 6Y7       0.057200
     35 H3          -1.4520    -1.9550    -3.0480 h4         1 6Y7       0.063100
     36 H4          -3.4690     0.2840    -2.2850 hc         1 6Y7       0.084700
     37 H5          -5.5070     0.9430    -1.0920 hc         1 6Y7       0.093200
     38 H6          -4.6480     0.6480     0.5520 hc         1 6Y7       0.093200
     39 H7          -5.1400    -1.4150    -1.7080 hc         1 6Y7       0.093200
     40 H8          -4.2810    -1.7100    -0.0630 hc         1 6Y7       0.093200
     41 H9          -2.1980    -2.3470     0.9550 ha         1 6Y7       0.124000
     42 H10          1.9390    -0.0000     3.3390 ha         1 6Y7       0.146000
     43 H11         -0.5060    -0.0020     3.3710 ha         1 6Y7       0.159000
     44 H13         -4.3960    -5.4950     2.8170 ha         1 6Y7       0.162000
     45 H14         -2.6070    -4.7480     1.3040 ha         1 6Y7       0.114000
     46 H15          0.3050     1.9420    -2.6580 h4         1 6Y7       0.182000
     47 H16          2.2100     1.1540    -6.8970 hc         1 6Y7       0.051033
     48 H17          1.2410    -0.3030    -6.6400 hc         1 6Y7       0.051033
     49 H18          2.4190     0.2030    -5.4200 hc         1 6Y7       0.051033
@<TRIPOS>BOND
     1    24    23 1   
     2    23    25 1   
     3    23    22 1   
     4    26    22 ar  
     5    26    27 ar  
     6    22    20 ar  
     7    27    11 ar  
     8    20    21 1   
     9    20    10 ar  
    10    11    10 ar  
    11    10    19 1   
    12    19     9 1   
    13     6     8 1   
    14     6     5 1   
    15     6     7 1   
    16     9     5 2   
    17     9    18 1   
    18     8     7 1   
    19     5    28 1   
    20    17    18 ar  
    21    17    16 ar  
    22    18     1 ar  
    23    28     1 1   
    24    28     2 1   
    25     4     2 1   
    26     4    29 2   
    27    16    13 ar  
    28     1    14 ar  
    29     2    31 2   
    30    13    14 ar  
    31    13    12 1   
    32    14    15 1   
    33    29    30 1   
    34    31    30 1   
    35    30     3 1   
    36     3    32 1   
    37     3    33 1   
    38     3    34 1   
    39     4    35 1   
    40     6    36 1   
    41     7    37 1   
    42     7    38 1   
    43     8    39 1   
    44     8    40 1   
    45    11    41 1   
    46    16    42 1   
    47    17    43 1   
    48    26    44 1   
    49    27    45 1   
    50    31    46 1   
    51    32    47 1   
    52    32    48 1   
    53    32    49 1   
@<TRIPOS>SUBSTRUCTURE
     1 6Y7         1 TEMP              0 ****  ****    0 ROOT
