@<TRIPOS>MOLECULE
molecule
   52    55     1     0     0
SMALL
bcc


@<TRIPOS>ATOM
      1 C10          0.0000     0.0000     0.0000 ca         1 6Y8      -0.118000
      2 C12          4.2750     0.1280     0.3920 cc         1 6Y8      -0.084300
      3 C13          5.4980     0.1020     0.9640 cd         1 6Y8      -0.362600
      4 C15          7.7930     1.8610     2.0770 ca         1 6Y8       0.645200
      5 C19          6.8150     5.9300     4.1670 c3         1 6Y8       0.140700
      6 C16          8.6370     2.5490     1.2020 ca         1 6Y8      -0.169700
      7 C17          8.7640     3.9170     1.3500 ca         1 6Y8       0.477200
      8 N3           8.0870     4.5300     2.3100 nb         1 6Y8      -0.807000
      9 C18          7.2950     3.8520     3.1240 ca         1 6Y8       0.923300
     10 O2           6.6190     4.5170     4.0920 os         1 6Y8      -0.407100
     11 N4           7.1440     2.5430     3.0170 nb         1 6Y8      -0.770000
     12 N2           7.6290     0.4880     1.9650 nh         1 6Y8      -0.655300
     13 C3           6.6930    -0.0200     2.9930 c3         1 6Y8       0.147200
     14 C1           7.0630    -1.4530     3.3820 c3         1 6Y8      -0.059700
     15 C2           8.5130    -1.4900     3.8700 c3         1 6Y8      -0.087100
     16 C            6.1360    -1.9340     4.5000 c3         1 6Y8      -0.087100
     17 C14          6.9820     0.1350     0.6810 c3         1 6Y8       0.245100
     18 C4           5.3230     0.0090     2.3530 cd         1 6Y8       0.334600
     19 N1           3.3550     0.0600     1.3820 na         1 6Y8       0.176300
     20 N            4.0400    -0.0200     2.6010 nc         1 6Y8      -0.464800
     21 C5           2.0740     0.0000     1.2030 ca         1 6Y8       0.016800
     22 C11          1.3800     0.0000     0.0000 ca         1 6Y8      -0.118000
     23 C9          -0.6930     0.0050     1.1970 ca         1 6Y8      -0.057000
     24 C7          -0.0060     0.0110     2.3960 ca         1 6Y8      -0.273500
     25 C6           1.3760     0.0110     2.4030 ca         1 6Y8      -0.059000
     26 S           -0.8930     0.0190     3.9190 sy         1 6Y8       1.189300
     27 O           -0.0000     0.6290     4.8410 o          1 6Y8      -0.613800
     28 O1          -2.1380     0.6240     3.5960 o          1 6Y8      -0.613800
     29 C8          -1.1220    -1.7360     4.3200 c3         1 6Y8      -0.225300
     30 H1          -0.5410    -0.0030    -0.9390 ha         1 6Y8       0.142000
     31 H2           4.0670     0.1990    -0.6690 h4         1 6Y8       0.178000
     32 H3           6.2220     6.3340     4.9780 h1         1 6Y8       0.051700
     33 H4           7.8630     6.1400     4.3470 h1         1 6Y8       0.051700
     34 H5           6.5100     6.3870     3.2340 h1         1 6Y8       0.051700
     35 H6           9.4100     4.4820     0.6890 h4         1 6Y8       0.044100
     36 H7           6.7100     0.6250     3.8630 h1         1 6Y8       0.119700
     37 H8           6.9560    -2.1010     2.5200 hc         1 6Y8       0.053700
     38 H9           8.6520    -0.7470     4.6460 hc         1 6Y8       0.040367
     39 H10          9.1790    -1.2770     3.0420 hc         1 6Y8       0.040367
     40 H11          8.7350    -2.4730     4.2680 hc         1 6Y8       0.040367
     41 H12          5.2020    -2.2780     4.0720 hc         1 6Y8       0.040367
     42 H13          6.6090    -2.7480     5.0360 hc         1 6Y8       0.040367
     43 H14          5.9410    -1.1170     5.1830 hc         1 6Y8       0.040367
     44 H15          7.1830     0.9200    -0.0390 h1         1 6Y8       0.078200
     45 H16          7.3050    -0.8570     0.3880 h1         1 6Y8       0.078200
     46 H17          1.9220    -0.0040    -0.9380 ha         1 6Y8       0.135000
     47 H18         -1.7770     0.0050     1.1950 ha         1 6Y8       0.153000
     48 H19          1.9130     0.0620     3.3430 ha         1 6Y8       0.189000
     49 H20         -1.7380    -1.8260     5.2060 h1         1 6Y8       0.098700
     50 H21         -1.6060    -2.2360     3.4900 h1         1 6Y8       0.098700
     51 H22         -0.1570    -2.1930     4.5030 h1         1 6Y8       0.098700
     52 F            9.3130     1.8920     0.2340 f          1 6Y8      -0.125900
@<TRIPOS>BOND
     1    27    26 2   
     2    26    29 1   
     3    26    28 2   
     4    26    24 1   
     5    23    24 ar  
     6    23     1 ar  
     7    24    25 ar  
     8     1    22 ar  
     9    25    21 ar  
    10    22    21 ar  
    11    21    19 1   
    12    19     2 1   
    13    19    20 1   
    14     2     3 2   
    15    20    18 2   
    16     3    18 1   
    17     3    17 1   
    18    18    13 1   
    19    16    14 1   
    20    17    12 1   
    21    15    14 1   
    22    13    14 1   
    23    13    12 1   
    24    12     4 1   
    25    52     6 1   
    26     4     6 ar  
    27     4    11 ar  
    28     6     7 ar  
    29    11     9 ar  
    30     7     8 ar  
    31     9     8 ar  
    32     9    10 1   
    33    10     5 1   
    34     1    30 1   
    35     2    31 1   
    36     5    32 1   
    37     5    33 1   
    38     5    34 1   
    39     7    35 1   
    40    13    36 1   
    41    14    37 1   
    42    15    38 1   
    43    15    39 1   
    44    15    40 1   
    45    16    41 1   
    46    16    42 1   
    47    16    43 1   
    48    17    44 1   
    49    17    45 1   
    50    22    46 1   
    51    23    47 1   
    52    25    48 1   
    53    29    49 1   
    54    29    50 1   
    55    29    51 1   
@<TRIPOS>SUBSTRUCTURE
     1 6Y8         1 TEMP              0 ****  ****    0 ROOT
