@<TRIPOS>MOLECULE
6Y8
   52    55     1     0     0
SMALL
bcc


@<TRIPOS>ATOM
      1 C10          0.0000     0.0000     0.0000 ca         1 6Y8      -0.101000
      2 C12          4.2750     0.1280     0.3920 cc         1 6Y8      -0.239300
      3 C13          5.4980     0.1020     0.9640 cd         1 6Y8      -0.376600
      4 C15          7.7930     1.8610     2.0770 ca         1 6Y8       0.535200
      5 C19          6.8150     5.9300     4.1670 c3         1 6Y8       0.257700
      6 C16          8.6370     2.5490     1.2020 ca         1 6Y8      -0.195700
      7 C17          8.7640     3.9170     1.3500 ca         1 6Y8       0.476200
      8 N3           8.0870     4.5300     2.3100 nb         1 6Y8      -0.706000
      9 C18          7.2950     3.8520     3.1240 ca         1 6Y8       0.851300
     10 O2           6.6190     4.5170     4.0920 os         1 6Y8      -0.403100
     11 N4           7.1440     2.5430     3.0170 nb         1 6Y8      -0.654000
     12 N2           7.6290     0.4880     1.9650 nh         1 6Y8      -0.459300
     13 C3           6.6930    -0.0200     2.9930 c3         1 6Y8       0.101200
     14 C1           7.0630    -1.4530     3.3820 c3         1 6Y8      -0.042700
     15 C2           8.5130    -1.4900     3.8700 c3         1 6Y8       0.003400
     16 C            6.1360    -1.9340     4.5000 c3         1 6Y8       0.003400
     17 C14          6.9820     0.1350     0.6810 c3         1 6Y8       0.259100
     18 C4           5.3230     0.0090     2.3530 cd         1 6Y8       0.357600
     19 N1           3.3550     0.0600     1.3820 na         1 6Y8       0.675300
     20 N            4.0400    -0.0200     2.6010 nc         1 6Y8      -0.611800
     21 C5           2.0740     0.0000     1.2030 ca         1 6Y8      -0.188200
     22 C11          1.3800     0.0000     0.0000 ca         1 6Y8      -0.077000
     23 C9          -0.6930     0.0050     1.1970 ca         1 6Y8      -0.016000
     24 C7          -0.0060     0.0110     2.3960 ca         1 6Y8      -0.130500
     25 C6           1.3760     0.0110     2.4030 ca         1 6Y8      -0.035000
     26 S           -0.8930     0.0190     3.9190 sy         1 6Y8       0.871300
     27 O           -0.0000     0.6290     4.8410 o          1 6Y8      -0.583800
     28 O1          -2.1380     0.6240     3.5960 o          1 6Y8      -0.583800
     29 C8          -1.1220    -1.7360     4.3200 c3         1 6Y8       0.029700
     30 H1          -0.5410    -0.0030    -0.9390 ha         1 6Y8       0.112000
     31 H2           4.0670     0.1990    -0.6690 h4         1 6Y8       0.151000
     32 H3           6.2220     6.3340     4.9780 h1         1 6Y8       0.003033
     33 H4           7.8630     6.1400     4.3470 h1         1 6Y8       0.003033
     34 H5           6.5100     6.3870     3.2340 h1         1 6Y8       0.003033
     35 H6           9.4100     4.4820     0.6890 h4         1 6Y8      -0.003900
     36 H7           6.7100     0.6250     3.8630 h1         1 6Y8       0.086700
     37 H8           6.9560    -2.1010     2.5200 hc         1 6Y8       0.027700
     38 H9           8.6520    -0.7470     4.6460 hc         1 6Y8       0.007867
     39 H10          9.1790    -1.2770     3.0420 hc         1 6Y8       0.007867
     40 H11          8.7350    -2.4730     4.2680 hc         1 6Y8       0.007867
     41 H12          5.2020    -2.2780     4.0720 hc         1 6Y8       0.007867
     42 H13          6.6090    -2.7480     5.0360 hc         1 6Y8       0.007867
     43 H14          5.9410    -1.1170     5.1830 hc         1 6Y8       0.007867
     44 H15          7.1830     0.9200    -0.0390 h1         1 6Y8       0.038200
     45 H16          7.3050    -0.8570     0.3880 h1         1 6Y8       0.038200
     46 H17          1.9220    -0.0040    -0.9380 ha         1 6Y8       0.110000
     47 H18         -1.7770     0.0050     1.1950 ha         1 6Y8       0.126000
     48 H19          1.9130     0.0620     3.3430 ha         1 6Y8       0.170000
     49 H20         -1.7380    -1.8260     5.2060 h1         1 6Y8       0.060367
     50 H21         -1.6060    -2.2360     3.4900 h1         1 6Y8       0.060367
     51 H22         -0.1570    -2.1930     4.5030 h1         1 6Y8       0.060367
     52 F            9.3130     1.8920     0.2340 f          1 6Y8      -0.110900
@<TRIPOS>BOND
     1     1    22 ar  
     2     1    23 ar  
     3     1    30 1   
     4     2     3 2   
     5     2    19 1   
     6     2    31 1   
     7     3    17 1   
     8     3    18 1   
     9     4     6 ar  
    10     4    11 ar  
    11     4    12 1   
    12     5    10 1   
    13     5    32 1   
    14     5    33 1   
    15     5    34 1   
    16     6     7 ar  
    17     6    52 1   
    18     7     8 ar  
    19     7    35 1   
    20     8     9 ar  
    21     9    10 1   
    22     9    11 ar  
    23    12    13 1   
    24    12    17 1   
    25    13    14 1   
    26    13    18 1   
    27    13    36 1   
    28    14    15 1   
    29    14    16 1   
    30    14    37 1   
    31    15    38 1   
    32    15    39 1   
    33    15    40 1   
    34    16    41 1   
    35    16    42 1   
    36    16    43 1   
    37    17    44 1   
    38    17    45 1   
    39    18    20 2   
    40    19    20 1   
    41    19    21 1   
    42    21    22 ar  
    43    21    25 ar  
    44    22    46 1   
    45    23    24 ar  
    46    23    47 1   
    47    24    25 ar  
    48    24    26 1   
    49    25    48 1   
    50    26    27 2   
    51    26    28 2   
    52    26    29 1   
    53    29    49 1   
    54    29    50 1   
    55    29    51 1   
@<TRIPOS>SUBSTRUCTURE
     1 6Y8         1 TEMP              0 ****  ****    0 ROOT
