@<TRIPOS>MOLECULE
molecule
   53    56     1     0     0
SMALL
bcc


@<TRIPOS>ATOM
      1 C10          0.0000     0.0000     0.0000 ca         1 6YA      -0.136000
      2 C13          1.6530    -1.4430    -4.4370 c3         1 6YA      -0.214600
      3 C17          1.3310    -2.9240    -6.8130 c3         1 6YA      -0.229300
      4 C20          6.2180    -1.9010    -0.3160 c          1 6YA       0.807500
      5 C24          6.8550     0.1180     0.3540 ca         1 6YA      -0.128700
      6 C28          8.7080    -0.3910     1.7890 ca         1 6YA      -0.243300
      7 C01          3.5080    -0.0000     0.8850 cc         1 6YA      -0.163200
      8 C02          3.5920     0.0010    -0.4550 cd         1 6YA      -0.089300
      9 N03          2.3370     0.0010    -1.0010 na         1 6YA      -0.068400
     10 C04          1.3900     0.0000     0.0000 ca         1 6YA      -0.027200
     11 C05          2.0830     0.0000     1.2240 ca         1 6YA      -0.096800
     12 C06          1.3730    -0.0010     2.4270 ca         1 6YA      -0.066000
     13 C07         -0.0050    -0.0010     2.4040 ca         1 6YA       0.000400
     14 Cl8         -0.8930    -0.0020     3.8960 cl         1 6YA      -0.113400
     15 C09         -0.6870    -0.0010     1.1950 ca         1 6YA      -0.098000
     16 C11          2.0440     0.0010    -2.4370 c3         1 6YA       0.057300
     17 C12          1.8710    -1.4390    -2.9220 c3         1 6YA      -0.085400
     18 S14          1.5200    -3.1550    -5.0230 s6         1 6YA       1.105000
     19 O15          2.7550    -3.8140    -4.7800 o          1 6YA      -0.604300
     20 O16          0.3210    -3.7170    -4.5100 o          1 6YA      -0.604300
     21 C18          4.8770     0.0020    -1.2410 c3         1 6YA       0.201200
     22 N19          5.9460    -0.5860    -0.4300 n          1 6YA      -0.349000
     23 N22          7.2710    -2.0760     0.5070 n          1 6YA      -0.359000
     24 C23          7.6950    -0.8320     0.9480 ca         1 6YA       0.025600
     25 C25          7.0610     1.4600     0.6260 ca         1 6YA       0.430200
     26 N26          8.0340     1.8350     1.4350 nb         1 6YA      -0.676000
     27 C27          8.8440     0.9650     2.0100 ca         1 6YA       0.421200
     28 C29          7.8630    -3.3640     0.8760 c3         1 6YA       0.084000
     29 C30          7.1660    -3.9060     2.1250 c3         1 6YA       0.593900
     30 F31          5.8050    -4.0890     1.8570 f          1 6YA      -0.216633
     31 F32          7.7390    -5.1310     2.4840 f          1 6YA      -0.216633
     32 F33          7.3170    -2.9960     3.1770 f          1 6YA      -0.216633
     33 H1          -0.5430    -0.0000    -0.9380 ha         1 6YA       0.131000
     34 H2           2.4910    -0.9590    -4.9240 h1         1 6YA       0.092200
     35 H3           0.7410    -0.9090    -4.6730 h1         1 6YA       0.092200
     36 H4           2.2010    -2.4110    -7.2040 h1         1 6YA       0.097367
     37 H5           1.2340    -3.8900    -7.2930 h1         1 6YA       0.097367
     38 H6           0.4450    -2.3320    -7.0090 h1         1 6YA       0.097367
     39 H7           9.3770    -1.0980     2.2650 ha         1 6YA       0.146000
     40 H8           4.3360    -0.0010     1.5830 ha         1 6YA       0.163000
     41 H9           1.9000     0.1110     3.3670 ha         1 6YA       0.147000
     42 H10         -1.7700    -0.0010     1.1900 ha         1 6YA       0.145000
     43 H11          1.1320     0.5560    -2.6190 h1         1 6YA       0.058700
     44 H12          2.8630     0.4670    -2.9720 h1         1 6YA       0.058700
     45 H13          2.7600    -2.0100    -2.6830 hc         1 6YA       0.079200
     46 H14          1.0130    -1.8840    -2.4330 hc         1 6YA       0.079200
     47 H15          4.7480    -0.5800    -2.1450 h1         1 6YA       0.074700
     48 H16          5.1400     1.0200    -1.5010 h1         1 6YA       0.074700
     49 H17          6.4180     2.2060     0.1750 h4         1 6YA       0.030100
     50 H18          9.6290     1.3220     2.6670 h4         1 6YA       0.034100
     51 H19          8.9190    -3.2310     1.0800 h1         1 6YA       0.101200
     52 H20          7.7390    -4.0660     0.0590 h1         1 6YA       0.101200
     53 O21          5.6090    -2.7930    -0.8750 o          1 6YA      -0.625500
@<TRIPOS>BOND
     1    31    29 1
     2    32    29 1
     3    29    28 1
     4    29    30 1
     5    28    23 1
     6     6    27 ar
     7     6    24 ar
     8    20    18 2
     9    27    26 ar
    10    23    24 1
    11    23     4 1
    12    24     5 ar
    13     3    18 1
    14    18    19 2
    15    18     2 1
    16    26    25 ar
    17     4    53 2
    18     4    22 1
    19     5    25 ar
    20     5    22 1
    21    22    21 1
    22     2    17 1
    23    17    16 1
    24    16     9 1
    25    21     8 1
    26     9     8 1
    27     9    10 1
    28     8     7 2
    29    10     1 ar
    30    10    11 ar
    31     7    11 1
    32     1    15 ar
    33    11    12 ar
    34    15    13 ar
    35    12    13 ar
    36    13    14 1
    37     1    33 1
    38     2    34 1
    39     2    35 1
    40     3    36 1
    41     3    37 1
    42     3    38 1
    43     6    39 1
    44     7    40 1
    45    12    41 1
    46    15    42 1
    47    16    43 1
    48    16    44 1
    49    17    45 1
    50    17    46 1
    51    21    47 1
    52    21    48 1
    53    25    49 1
    54    27    50 1
    55    28    51 1
    56    28    52 1
@<TRIPOS>SUBSTRUCTURE
     1 6YA         1 TEMP              0 ****  ****    0 ROOT
