@<TRIPOS>MOLECULE
molecule
   55    57     1     0     0
SMALL
bcc


@<TRIPOS>ATOM
      1 CAU          0.0000     0.0000     0.0000 ca         1 6YC      -0.109000
      2 CAV          1.4030     0.0000     0.0000 ca         1 6YC      -0.046000
      3 CBA          2.1300     0.0000     1.2050 ca         1 6YC      -0.115000
      4 CAZ          3.4910    -0.0000     1.1700 ca         1 6YC      -0.123000
      5 CAY          4.1760     0.0020    -0.0430 ca         1 6YC      -0.120000
      6 CAX          3.5070     0.0030    -1.2280 ca         1 6YC      -0.118000
      7 CAW          2.1010     0.0020    -1.2350 ca         1 6YC      -0.023000
      8 CAT          1.3810     0.0020    -2.4420 ca         1 6YC      -0.120000
      9 CAS          0.0230     0.0010    -2.4230 ca         1 6YC      -0.085000
     10 CAR         -0.6800    -0.0010    -1.2060 ca         1 6YC      -0.132600
     11 CAB         -2.1590    -0.0080    -1.2150 c          1 6YC       0.670700
     12 OAA         -2.7660     0.7430    -1.9530 o          1 6YC      -0.598100
     13 NAC         -2.8320    -0.8460    -0.4030 n          1 6YC      -0.477800
     14 CAD         -2.1070    -1.6510     0.5840 c3         1 6YC       0.084000
     15 CAE         -2.1880    -0.9720     1.9530 c3         1 6YC       0.096400
     16 OAF         -3.5360    -1.0150     2.4270 os         1 6YC      -0.429600
     17 CAG         -3.7220    -0.4050     3.7060 c3         1 6YC       0.126700
     18 CAH         -4.2890    -0.9540    -0.5080 c3         1 6YC       0.116000
     19 CAI         -4.6490    -2.0490    -1.5140 c3         1 6YC      -0.137700
     20 CAQ         -6.1650    -2.0770    -1.7180 c3         1 6YC       0.167800
     21 CAJ         -4.1850    -3.4070    -0.9800 c3         1 6YC      -0.080400
     22 CAK         -4.6020    -4.5030    -1.9650 c3         1 6YC      -0.122400
     23 CAL         -6.1190    -4.4600    -2.1560 c3         1 6YC       0.160800
     24 NAM         -6.5130    -3.1420    -2.6680 n3         1 6YC      -0.711600
     25 CAN         -5.9130    -2.8880    -3.9850 c3         1 6YC       0.241900
     26 CAO         -6.4700    -3.8330    -4.9680 c1         1 6YC      -0.136100
     27 CAP         -6.9330    -4.5780    -5.7470 c1         1 6YC      -0.154500
     28 H1          -0.5420     0.0000     0.9380 ha         1 6YC       0.143000
     29 H2           1.6070     0.0000     2.1530 ha         1 6YC       0.130000
     30 H3           4.0560    -0.0000     2.0940 ha         1 6YC       0.131000
     31 H4           5.2600     0.0010    -0.0520 ha         1 6YC       0.131000
     32 H5           4.0580     0.0040    -2.1610 ha         1 6YC       0.136000
     33 H6           1.9090     0.0040    -3.3880 ha         1 6YC       0.138000
     34 H7          -0.5310     0.0010    -3.3540 ha         1 6YC       0.148000
     35 H8          -2.5480    -2.6390     0.6380 h1         1 6YC       0.073700
     36 H9          -1.0680    -1.7350     0.2890 h1         1 6YC       0.073700
     37 H10         -2.2010     0.1030     1.8230 h1         1 6YC       0.038200
     38 H11         -1.3270    -1.2530     2.5470 h1         1 6YC       0.038200
     39 H12         -3.2640     0.5770     3.7080 h1         1 6YC       0.032367
     40 H13         -4.7820    -0.3090     3.9100 h1         1 6YC       0.032367
     41 H14         -3.2610    -1.0190     4.4700 h1         1 6YC       0.032367
     42 H15         -4.7150     0.0310    -0.6530 h1         1 6YC       0.070700
     43 H16         -4.6860    -1.3890     0.4020 h1         1 6YC       0.070700
     44 H17         -4.1630    -1.8500    -2.4610 hc         1 6YC       0.063700
     45 H18         -6.6430    -2.2730    -0.7660 h1         1 6YC       0.058700
     46 H19         -6.4870    -1.1110    -2.0870 h1         1 6YC       0.058700
     47 H20         -4.6330    -3.5730    -0.0080 hc         1 6YC       0.044200
     48 H21         -3.1070    -3.3940    -0.8780 hc         1 6YC       0.044200
     49 H22         -4.0370    -4.3830    -2.8820 hc         1 6YC       0.046700
     50 H23         -4.3760    -5.4690    -1.5300 hc         1 6YC       0.046700
     51 H24         -6.3930    -5.1580    -2.9380 h1         1 6YC       0.060200
     52 H25         -6.5970    -4.7560    -1.2300 h1         1 6YC       0.060200
     53 H27         -6.1360    -1.8740    -4.2940 h1         1 6YC       0.056700
     54 H28         -4.8390    -3.0200    -3.9240 h1         1 6YC       0.056700
     55 H29         -7.3470    -5.2790    -6.4620 ha         1 6YC       0.163500
@<TRIPOS>BOND
     1     5     6 ar
     2     5     4 ar
     3     6     7 ar
     4     4     3 ar
     5     7     8 ar
     6     7     2 ar
     7     3     2 ar
     8     8     9 ar
     9     2     1 ar
    10     9    10 ar
    11     1    10 ar
    12    10    11 1
    13    14    15 1
    14    14    13 1
    15    16    15 1
    16    16    17 1
    17    11    13 1
    18    11    12 2
    19    13    18 1
    20    21    22 1
    21    21    19 1
    22    22    23 1
    23    18    19 1
    24    19    20 1
    25    23    24 1
    26    20    24 1
    27    24    25 1
    28    25    26 1
    29    26    27 3
    30     1    28 1
    31     3    29 1
    32     4    30 1
    33     5    31 1
    34     6    32 1
    35     8    33 1
    36     9    34 1
    37    14    35 1
    38    14    36 1
    39    15    37 1
    40    15    38 1
    41    17    39 1
    42    17    40 1
    43    17    41 1
    44    18    42 1
    45    18    43 1
    46    19    44 1
    47    20    45 1
    48    20    46 1
    49    21    47 1
    50    21    48 1
    51    22    49 1
    52    22    50 1
    53    23    51 1
    54    23    52 1
    55    25    53 1
    56    25    54 1
    57    27    55 1
@<TRIPOS>SUBSTRUCTURE
     1 6YC         1 TEMP              0 ****  ****    0 ROOT
