@<TRIPOS>MOLECULE
6YC
   55    57     1     0     0
SMALL
bcc


@<TRIPOS>ATOM
      1 CAU          0.0000     0.0000     0.0000 ca         1 6YC      -0.102000
      2 CAV          1.4030     0.0000     0.0000 ca         1 6YC      -0.042000
      3 CBA          2.1300     0.0000     1.2050 ca         1 6YC      -0.089000
      4 CAZ          3.4910    -0.0000     1.1700 ca         1 6YC      -0.096000
      5 CAY          4.1760     0.0020    -0.0430 ca         1 6YC      -0.095000
      6 CAX          3.5070     0.0030    -1.2280 ca         1 6YC      -0.089000
      7 CAW          2.1010     0.0020    -1.2350 ca         1 6YC      -0.024000
      8 CAT          1.3810     0.0020    -2.4420 ca         1 6YC      -0.091000
      9 CAS          0.0230     0.0010    -2.4230 ca         1 6YC      -0.056000
     10 CAR         -0.6800    -0.0010    -1.2060 ca         1 6YC      -0.136600
     11 CAB         -2.1590    -0.0080    -1.2150 c          1 6YC       0.603700
     12 OAA         -2.7660     0.7430    -1.9530 o          1 6YC      -0.640100
     13 NAC         -2.8320    -0.8460    -0.4030 n          1 6YC      -0.134800
     14 CAD         -2.1070    -1.6510     0.5840 c3         1 6YC      -0.009000
     15 CAE         -2.1880    -0.9720     1.9530 c3         1 6YC       0.167400
     16 OAF         -3.5360    -1.0150     2.4270 os         1 6YC      -0.416600
     17 CAG         -3.7220    -0.4050     3.7060 c3         1 6YC       0.252700
     18 CAH         -4.2890    -0.9540    -0.5080 c3         1 6YC       0.053000
     19 CAI         -4.6490    -2.0490    -1.5140 c3         1 6YC      -0.117700
     20 CAQ         -6.1650    -2.0770    -1.7180 c3         1 6YC       0.162800
     21 CAJ         -4.1850    -3.4070    -0.9800 c3         1 6YC      -0.037400
     22 CAK         -4.6020    -4.5030    -1.9650 c3         1 6YC      -0.065400
     23 CAL         -6.1190    -4.4600    -2.1560 c3         1 6YC       0.149800
     24 NAM         -6.5130    -3.1420    -2.6680 n3         1 6YC      -0.530600
     25 CAN         -5.9130    -2.8880    -3.9850 c3         1 6YC       0.266900
     26 CAO         -6.4700    -3.8330    -4.9680 c1         1 6YC      -0.157100
     27 CAP         -6.9330    -4.5780    -5.7470 c1         1 6YC      -0.124500
     28 H1          -0.5420     0.0000     0.9380 ha         1 6YC       0.129000
     29 H2           1.6070     0.0000     2.1530 ha         1 6YC       0.103000
     30 H3           4.0560    -0.0000     2.0940 ha         1 6YC       0.102000
     31 H4           5.2600     0.0010    -0.0520 ha         1 6YC       0.102000
     32 H5           4.0580     0.0040    -2.1610 ha         1 6YC       0.108000
     33 H6           1.9090     0.0040    -3.3880 ha         1 6YC       0.110000
     34 H7          -0.5310     0.0010    -3.3540 ha         1 6YC       0.118000
     35 H8          -2.5480    -2.6390     0.6380 h1         1 6YC       0.055200
     36 H9          -1.0680    -1.7350     0.2890 h1         1 6YC       0.055200
     37 H10         -2.2010     0.1030     1.8230 h1         1 6YC       0.008700
     38 H11         -1.3270    -1.2530     2.5470 h1         1 6YC       0.008700
     39 H12         -3.2640     0.5770     3.7080 h1         1 6YC      -0.010300
     40 H13         -4.7820    -0.3090     3.9100 h1         1 6YC      -0.010300
     41 H14         -3.2610    -1.0190     4.4700 h1         1 6YC      -0.010300
     42 H15         -4.7150     0.0310    -0.6530 h1         1 6YC       0.045700
     43 H16         -4.6860    -1.3890     0.4020 h1         1 6YC       0.045700
     44 H17         -4.1630    -1.8500    -2.4610 hc         1 6YC       0.046700
     45 H18         -6.6430    -2.2730    -0.7660 h1         1 6YC       0.027700
     46 H19         -6.4870    -1.1110    -2.0870 h1         1 6YC       0.027700
     47 H20         -4.6330    -3.5730    -0.0080 hc         1 6YC       0.022200
     48 H21         -3.1070    -3.3940    -0.8780 hc         1 6YC       0.022200
     49 H22         -4.0370    -4.3830    -2.8820 hc         1 6YC       0.022700
     50 H23         -4.3760    -5.4690    -1.5300 hc         1 6YC       0.022700
     51 H24         -6.3930    -5.1580    -2.9380 h1         1 6YC       0.029700
     52 H25         -6.5970    -4.7560    -1.2300 h1         1 6YC       0.029700
     53 H27         -6.1360    -1.8740    -4.2940 h1         1 6YC       0.023700
     54 H28         -4.8390    -3.0200    -3.9240 h1         1 6YC       0.023700
     55 H29         -7.3470    -5.2790    -6.4620 ha         1 6YC       0.138500
@<TRIPOS>BOND
     1     1     2 ar  
     2     1    10 ar  
     3     1    28 1   
     4     2     3 ar  
     5     2     7 ar  
     6     3     4 ar  
     7     3    29 1   
     8     4     5 ar  
     9     4    30 1   
    10     5     6 ar  
    11     5    31 1   
    12     6     7 ar  
    13     6    32 1   
    14     7     8 ar  
    15     8     9 ar  
    16     8    33 1   
    17     9    10 ar  
    18     9    34 1   
    19    10    11 1   
    20    11    12 2   
    21    11    13 1   
    22    13    14 1   
    23    13    18 1   
    24    14    15 1   
    25    14    35 1   
    26    14    36 1   
    27    15    16 1   
    28    15    37 1   
    29    15    38 1   
    30    16    17 1   
    31    17    39 1   
    32    17    40 1   
    33    17    41 1   
    34    18    19 1   
    35    18    42 1   
    36    18    43 1   
    37    19    20 1   
    38    19    21 1   
    39    19    44 1   
    40    20    24 1   
    41    20    45 1   
    42    20    46 1   
    43    21    22 1   
    44    21    47 1   
    45    21    48 1   
    46    22    23 1   
    47    22    49 1   
    48    22    50 1   
    49    23    24 1   
    50    23    51 1   
    51    23    52 1   
    52    24    25 1   
    53    25    26 1   
    54    25    53 1   
    55    25    54 1   
    56    26    27 3   
    57    27    55 1   
@<TRIPOS>SUBSTRUCTURE
     1 6YC         1 TEMP              0 ****  ****    0 ROOT
