@<TRIPOS>MOLECULE
6YD
   40    42     1     0     0
SMALL
bcc


@<TRIPOS>ATOM
      1 N01          0.0000     0.0000     0.0000 ns         1 6YD       0.027900
      2 C02          1.3490     0.0000     0.0000 c          1 6YD       0.493600
      3 O03          1.9560     0.0000     1.0520 o          1 6YD      -0.626100
      4 C04          2.0880     0.0000    -1.2830 ca         1 6YD       0.294800
      5 N05          1.4180     0.0070    -2.4290 nb         1 6YD      -0.594000
      6 C06          2.0420     0.0070    -3.5950 ca         1 6YD       0.502800
      7 C07          3.4380     0.0020    -3.6570 ca         1 6YD      -0.179300
      8 C08          4.1670    -0.0050    -2.4820 ca         1 6YD      -0.063000
      9 C09          3.4810     0.0000    -1.2750 ca         1 6YD      -0.152300
     10 C10          1.2510     0.0140    -4.8510 cc         1 6YD      -0.406800
     11 C11          1.7650    -0.0840    -6.1590 cc         1 6YD       0.420200
     12 N12          0.7600    -0.0420    -6.9930 nd         1 6YD      -0.632800
     13 N13         -0.4240     0.0830    -6.2580 na         1 6YD       0.500400
     14 C14         -0.1070     0.1100    -4.9480 cd         1 6YD      -0.216300
     15 C15         -0.7010    -0.0000     1.2150 cc         1 6YD      -0.118700
     16 C16         -0.1750     0.0000     2.4690 cd         1 6YD      -0.372300
     17 N17         -1.2190    -0.0000     3.3380 na         1 6YD       0.723400
     18 N18         -2.3310    -0.0000     2.6950 nd         1 6YD      -0.665800
     19 C19         -2.1080     0.0060     1.3950 cc         1 6YD       0.113800
     20 C20         -1.0950    -0.0000     4.7970 c3         1 6YD      -0.028400
     21 C21         -3.1290     0.0080     0.3300 c          1 6YD       0.299600
     22 N22         -4.4380     0.0030     0.6510 nz         1 6YD       0.216600
     23 O23         -2.7890     0.0140    -0.8380 o          1 6YD      -0.485100
     24 C24         -1.7760     0.1650    -6.8150 c3         1 6YD       0.023600
     25 H1          -0.5000    -0.0370    -0.8660 hn         1 6YD       0.207500
     26 H2           3.9430     0.0010    -4.6150 ha         1 6YD       0.126000
     27 H3           5.2500    -0.0070    -2.5020 ha         1 6YD       0.121000
     28 H4           4.0230    -0.0050    -0.3370 ha         1 6YD       0.137000
     29 H5           2.8110    -0.1780    -6.4270 h4         1 6YD       0.011100
     30 H6          -0.8030     0.1990    -4.1230 h4         1 6YD       0.147000
     31 H7           0.8770     0.0000     2.7270 h4         1 6YD       0.229000
     32 H8          -1.9280     0.5400     5.2300 h1         1 6YD       0.048700
     33 H9          -0.1660     0.4800     5.0800 h1         1 6YD       0.048700
     34 H10         -1.0990    -1.0210     5.1590 h1         1 6YD       0.048700
     35 H11         -4.6290    -0.7670     1.2600 hn         1 6YD       0.243800
     36 H12         -4.9850    -0.0860    -0.1820 hn         1 6YD       0.243800
     37 H13         -2.4830     0.3610    -6.0190 h1         1 6YD       0.023700
     38 H14         -1.8190     0.9660    -7.5420 h1         1 6YD       0.023700
     39 H15         -2.0250    -0.7740    -7.2960 h1         1 6YD       0.023700
     40 H223        -4.6730     0.8650     1.1030 hn         1 6YD       0.243800
@<TRIPOS>BOND
     1     1     2 1   
     2     1    15 1   
     3     1    25 1   
     4     2     3 2   
     5     2     4 1   
     6     4     5 ar  
     7     4     9 ar  
     8     5     6 ar  
     9     6     7 ar  
    10     6    10 1   
    11     7     8 ar  
    12     7    26 1   
    13     8     9 ar  
    14     8    27 1   
    15     9    28 1   
    16    10    11 1   
    17    10    14 2   
    18    11    12 2   
    19    11    29 1   
    20    12    13 1   
    21    13    14 1   
    22    13    24 1   
    23    14    30 1   
    24    15    16 2   
    25    15    19 1   
    26    16    17 1   
    27    16    31 1   
    28    17    18 1   
    29    17    20 1   
    30    18    19 2   
    31    19    21 1   
    32    20    32 1   
    33    20    33 1   
    34    20    34 1   
    35    21    22 1   
    36    21    23 2   
    37    22    35 1   
    38    22    36 1   
    39    22    40 1   
    40    24    37 1   
    41    24    38 1   
    42    24    39 1   
@<TRIPOS>SUBSTRUCTURE
     1 6YD         1 TEMP              0 ****  ****    0 ROOT
