@<TRIPOS>MOLECULE
molecule
   40    42     1     0     0
SMALL
bcc


@<TRIPOS>ATOM
      1 N01          0.0000     0.0000     0.0000 ns         1 6YD      -0.431100
      2 C02          1.3490     0.0000     0.0000 c          1 6YD       0.593600
      3 O03          1.9560     0.0000     1.0520 o          1 6YD      -0.592100
      4 C04          2.0880     0.0000    -1.2830 ca         1 6YD       0.362800
      5 N05          1.4180     0.0070    -2.4290 nb         1 6YD      -0.714000
      6 C06          2.0420     0.0070    -3.5950 ca         1 6YD       0.537800
      7 C07          3.4380     0.0020    -3.6570 ca         1 6YD      -0.209300
      8 C08          4.1670    -0.0050    -2.4820 ca         1 6YD      -0.090000
      9 C09          3.4810     0.0000    -1.2750 ca         1 6YD      -0.190300
     10 C10          1.2510     0.0140    -4.8510 cc         1 6YD      -0.389800
     11 C11          1.7650    -0.0840    -6.1590 cd         1 6YD       0.357200
     12 N12          0.7600    -0.0420    -6.9930 nc         1 6YD      -0.492800
     13 N13         -0.4240     0.0830    -6.2580 na         1 6YD       0.072400
     14 C14         -0.1070     0.1100    -4.9480 cd         1 6YD      -0.071300
     15 C15         -0.7010    -0.0000     1.2150 cc         1 6YD      -0.013700
     16 C16         -0.1750     0.0000     2.4690 cd         1 6YD      -0.182300
     17 N17         -1.2190    -0.0000     3.3380 na         1 6YD       0.213400
     18 N18         -2.3310    -0.0000     2.6950 nd         1 6YD      -0.530800
     19 C19         -2.1080     0.0060     1.3950 cc         1 6YD       0.146800
     20 C20         -1.0950    -0.0000     4.7970 c3         1 6YD       0.039600
     21 C21         -3.1290     0.0080     0.3300 c          1 6YD       0.455600
     22 N22         -4.4380     0.0030     0.6510 nz         1 6YD      -0.672400
     23 O23         -2.7890     0.0140    -0.8380 o          1 6YD      -0.448100
     24 C24         -1.7760     0.1650    -6.8150 c3         1 6YD       0.062600
     25 H1          -0.5000    -0.0370    -0.8660 hn         1 6YD       0.365500
     26 H2           3.9430     0.0010    -4.6150 ha         1 6YD       0.153000
     27 H3           5.2500    -0.0070    -2.5020 ha         1 6YD       0.156000
     28 H4           4.0230    -0.0050    -0.3370 ha         1 6YD       0.165000
     29 H5           2.8110    -0.1780    -6.4270 h4         1 6YD       0.056100
     30 H6          -0.8030     0.1990    -4.1230 h4         1 6YD       0.175000
     31 H7           0.8770     0.0000     2.7270 h4         1 6YD       0.249000
     32 H8          -1.9280     0.5400     5.2300 h1         1 6YD       0.084033
     33 H9          -0.1660     0.4800     5.0800 h1         1 6YD       0.084033
     34 H10         -1.0990    -1.0210     5.1590 h1         1 6YD       0.084033
     35 H11         -4.6290    -0.7670     1.2600 hn         1 6YD       0.479800
     36 H12         -4.9850    -0.0860    -0.1820 hn         1 6YD       0.479800
     37 H13         -2.4830     0.3610    -6.0190 h1         1 6YD       0.058700
     38 H14         -1.8190     0.9660    -7.5420 h1         1 6YD       0.058700
     39 H15         -2.0250    -0.7740    -7.2960 h1         1 6YD       0.058700
     40 H223        -4.6730     0.8650     1.1030 hn         1 6YD       0.479800
@<TRIPOS>BOND
     1    24    13 1   
     2    13    12 1   
     3    13    14 1   
     4    12    11 2   
     5    14    10 2   
     6    11    10 1   
     7    22    21 1   
     8    23    21 2   
     9    10     6 1   
    10    21    19 1   
    11     6     5 ar  
    12     6     7 ar  
    13     5     4 ar  
    14    19    18 2   
    15    19    15 1   
    16     7     8 ar  
    17    18    17 1   
    18     1    15 1   
    19     1     2 1   
    20    15    16 2   
    21     4     2 1   
    22     4     9 ar  
    23     8     9 ar  
    24     2     3 2   
    25    17    16 1   
    26    17    20 1   
    27     1    25 1   
    28     7    26 1   
    29     8    27 1   
    30     9    28 1   
    31    11    29 1   
    32    14    30 1   
    33    16    31 1   
    34    20    32 1   
    35    20    33 1   
    36    20    34 1   
    37    22    35 1   
    38    22    36 1   
    39    24    37 1   
    40    24    38 1   
    41    24    39 1   
    42    40    22 1   
@<TRIPOS>SUBSTRUCTURE
     1 6YD         1 TEMP              0 ****  ****    0 ROOT
