@<TRIPOS>MOLECULE
6YE
   47    50     1     0     0
SMALL
bcc


@<TRIPOS>ATOM
      1 N01          0.0000     0.0000     0.0000 ns         1 6YE       0.007900
      2 C02          1.3470     0.0000     0.0000 c          1 6YE       0.648300
      3 O03          1.9570     0.0000     1.0540 o          1 6YE      -0.629100
      4 C04          2.0790    -0.0010    -1.2690 cc         1 6YE      -0.503800
      5 C05          1.5190    -0.0010    -2.5600 cc         1 6YE       0.522500
      6 N06          2.4860    -0.0020    -3.4370 nd         1 6YE      -0.724100
      7 N07          3.7190    -0.0020    -2.7750 na         1 6YE       0.506200
      8 C08          3.4790     0.0040    -1.4300 cd         1 6YE       0.333500
      9 N09          4.4850     0.0060    -0.5550 nd         1 6YE      -0.642000
     10 C10          5.7410    -0.0000    -0.9680 cc         1 6YE       0.570200
     11 C11          6.0260    -0.0070    -2.3490 cc         1 6YE      -0.305300
     12 C12          5.0050    -0.0040    -3.2360 cd         1 6YE      -0.129300
     13 N13          6.7720     0.0010    -0.0490 nh         1 6YE      -0.418300
     14 C14          8.1720    -0.1200    -0.4830 c3         1 6YE       0.156300
     15 C15          8.8360    -1.2410     0.3230 c3         1 6YE       0.130800
     16 N16          8.6510    -0.9830     1.7580 n7         1 6YE      -0.577200
     17 C17          7.2290    -1.0060     2.1240 c3         1 6YE       0.130800
     18 C18          6.4990     0.1310     1.3910 c3         1 6YE       0.156300
     19 C19         -0.7010     0.0010     1.2150 cc         1 6YE      -0.103700
     20 C20         -2.1080     0.0010     1.3960 cc         1 6YE       0.106800
     21 N21         -2.3310     0.0020     2.6970 nd         1 6YE      -0.673800
     22 N22         -1.2190     0.0020     3.3380 na         1 6YE       0.726400
     23 C23         -0.1760    -0.0050     2.4700 cd         1 6YE      -0.381300
     24 C24         -3.1300     0.0000     0.3310 c          1 6YE       0.298600
     25 N25         -4.4380     0.0010     0.6520 nz         1 6YE       0.216600
     26 O26         -2.7890    -0.0000    -0.8360 o          1 6YE      -0.492100
     27 C27         -1.0940     0.0040     4.7990 c3         1 6YE      -0.029400
     28 H1          -0.5000     0.0260    -0.8660 hn         1 6YE       0.189500
     29 H2           0.4600    -0.0000    -2.7890 h4         1 6YE       0.003800
     30 H3           6.9500     0.0820    -2.9070 ha         1 6YE       0.149000
     31 H4           5.2630     0.0060    -4.2880 h4         1 6YE       0.151000
     32 H5           8.6900     0.8140    -0.3020 h1         1 6YE       0.041950
     33 H6           8.2050    -0.3630    -1.5380 h1         1 6YE       0.041950
     34 H7           8.3790    -2.1890     0.0650 h1         1 6YE       0.016950
     35 H8           9.8940    -1.2700     0.0950 h1         1 6YE       0.016950
     36 H9           9.1440    -1.6760     2.2870 hn         1 6YE       0.263800
     37 H11          6.7970    -1.9570     1.8360 h1         1 6YE       0.016950
     38 H12          7.1300    -0.8670     3.1940 h1         1 6YE       0.016950
     39 H13          6.8650     1.0870     1.7460 h1         1 6YE       0.041950
     40 H14          5.4330     0.0530     1.5680 h1         1 6YE       0.041950
     41 H15          0.8760    -0.0070     2.7270 h4         1 6YE       0.231000
     42 H16         -4.6310     0.7690     1.2640 hn         1 6YE       0.243133
     43 H17         -4.9860     0.0910    -0.1800 hn         1 6YE       0.243133
     44 H18         -0.6480    -0.9270     5.1240 h1         1 6YE       0.047033
     45 H19         -0.4670     0.8320     5.1060 h1         1 6YE       0.047033
     46 H20         -2.0760     0.1090     5.2450 h1         1 6YE       0.047033
     47 H253        -4.6690    -0.8570     1.1140 hn         1 6YE       0.243133
@<TRIPOS>BOND
     1     1     2 1   
     2     1    19 1   
     3     1    28 1   
     4     2     3 2   
     5     2     4 1   
     6     4     5 1   
     7     4     8 2   
     8     5     6 2   
     9     5    29 1   
    10     6     7 1   
    11     7     8 1   
    12     7    12 1   
    13     8     9 1   
    14     9    10 2   
    15    10    11 1   
    16    10    13 1   
    17    11    12 2   
    18    11    30 1   
    19    12    31 1   
    20    13    14 1   
    21    13    18 1   
    22    14    15 1   
    23    14    32 1   
    24    14    33 1   
    25    15    16 1   
    26    15    34 1   
    27    15    35 1   
    28    16    17 1   
    29    16    36 1   
    30    17    18 1   
    31    17    37 1   
    32    17    38 1   
    33    18    39 1   
    34    18    40 1   
    35    19    20 1   
    36    19    23 2   
    37    20    21 2   
    38    20    24 1   
    39    21    22 1   
    40    22    23 1   
    41    22    27 1   
    42    23    41 1   
    43    24    25 1   
    44    24    26 2   
    45    25    42 1   
    46    25    43 1   
    47    25    47 1   
    48    27    44 1   
    49    27    45 1   
    50    27    46 1   
@<TRIPOS>SUBSTRUCTURE
     1 6YE         1 TEMP              0 ****  ****    0 ROOT
