@<TRIPOS>MOLECULE
6YF
   40    41     1     0     0
SMALL
bcc


@<TRIPOS>ATOM
      1 C1           0.0000     0.0000     0.0000 c3         1 6YF       0.238700
      2 O2           1.4290     0.0000     0.0000 os         1 6YF      -0.289900
      3 C3           2.0450     0.0000     1.2120 ca         1 6YF       0.202600
      4 C4           1.2910    -0.0000     2.3750 ca         1 6YF      -0.281500
      5 C5           1.9200    -0.0000     3.6120 ca         1 6YF       0.120600
      6 N6           1.1570    -0.0010     4.7840 nu         1 6YF      -0.380500
      7 S7           1.5370    -1.0370     6.0190 s6         1 6YF       0.955900
      8 O8           2.9040    -0.7700     6.2930 o          1 6YF      -0.532300
      9 O9           0.5330    -0.8000     6.9960 o          1 6YF      -0.532300
     10 C10          1.3430    -2.6910     5.2970 c3         1 6YF       0.599700
     11 F11          2.2960    -2.8730     4.2890 f          1 6YF      -0.185633
     12 F12          1.5260    -3.6570     6.2910 f          1 6YF      -0.185633
     13 F13          0.0600    -2.8160     4.7550 f          1 6YF      -0.185633
     14 C14          3.3070    -0.0020     3.6870 ca         1 6YF      -0.281500
     15 C15          4.0630    -0.0020     2.5250 ca         1 6YF       0.202600
     16 O16          5.4210    -0.0020     2.5980 os         1 6YF      -0.289900
     17 C17          6.0000    -0.0030     3.9040 c3         1 6YF       0.238700
     18 C18          3.4340    -0.0060     1.2860 ca         1 6YF       0.002100
     19 O19          4.1760    -0.0110     0.1450 os         1 6YF      -0.182200
     20 C20          4.5290     1.1840    -0.3920 ca         1 6YF       0.183100
     21 C21          5.2870     1.2250    -1.5570 ca         1 6YF      -0.142000
     22 C22          5.6480     2.4350    -2.1060 ca         1 6YF      -0.022000
     23 C23          5.2500     3.6250    -1.4900 ca         1 6YF      -0.017000
     24 C24          5.6220     4.8860    -2.0560 cg         1 6YF       0.235800
     25 N25          5.9300     5.8780    -2.5180 n1         1 6YF      -0.379800
     26 C26          4.4870     3.5810    -0.3180 ca         1 6YF       0.026400
     27 Cl           3.9900     5.0550     0.4530 cl         1 6YF      -0.001400
     28 C28          4.1270     2.3650     0.2210 ca         1 6YF      -0.204000
     29 H11C        -0.3610    -0.8840     0.5120 h1         1 6YF       0.004200
     30 H12C        -0.3610    -0.0010    -1.0210 h1         1 6YF       0.004200
     31 H13C        -0.3610     0.8850     0.5100 h1         1 6YF       0.004200
     32 H4           0.2090     0.0160     2.3180 ha         1 6YF       0.161000
     33 H6           0.3130     0.5330     4.8310 hn         1 6YF       0.360800
     34 H14          3.7970    -0.0020     4.6530 ha         1 6YF       0.161000
     35 H171         5.8990     0.9820     4.3450 h1         1 6YF       0.004200
     36 H172         7.0500    -0.2600     3.8330 h1         1 6YF       0.004200
     37 H173         5.4910    -0.7300     4.5250 h1         1 6YF       0.004200
     38 H21          5.5970     0.3020    -2.0350 ha         1 6YF       0.125000
     39 H28          3.5330     2.3290     1.1270 ha         1 6YF       0.137000
     40 H22          6.2390     2.4640    -3.0130 ha         1 6YF       0.116000
@<TRIPOS>BOND
     1     1     2 1   
     2     1    29 1   
     3     1    30 1   
     4     1    31 1   
     5     2     3 1   
     6     3     4 ar  
     7     3    18 ar  
     8     4     5 ar  
     9     4    32 1   
    10     5     6 1   
    11     5    14 ar  
    12     6     7 1   
    13     6    33 1   
    14     7     8 2   
    15     7     9 2   
    16     7    10 1   
    17    10    11 1   
    18    10    12 1   
    19    10    13 1   
    20    14    15 ar  
    21    14    34 1   
    22    15    16 1   
    23    15    18 ar  
    24    16    17 1   
    25    17    35 1   
    26    17    36 1   
    27    17    37 1   
    28    18    19 1   
    29    19    20 1   
    30    20    21 ar  
    31    20    28 ar  
    32    21    22 ar  
    33    21    38 1   
    34    22    23 ar  
    35    22    40 1   
    36    23    24 1   
    37    23    26 ar  
    38    24    25 3   
    39    26    27 1   
    40    26    28 ar  
    41    28    39 1   
@<TRIPOS>SUBSTRUCTURE
     1 6YF         1 TEMP              0 ****  ****    0 ROOT
