@<TRIPOS>MOLECULE
6YG
   48    51     1     0     0
SMALL
bcc


@<TRIPOS>ATOM
      1 N01          0.0000     0.0000     0.0000 nc         1 6YG      -0.604100
      2 C02          1.3040     0.0000     0.0000 cd         1 6YG       0.443200
      3 N03          2.0140     0.0000     1.1450 na         1 6YG      -0.172000
      4 C04          1.3710    -0.0010     2.3610 cc         1 6YG       0.048800
      5 C05         -0.0110    -0.0010     2.3810 cd         1 6YG      -0.268200
      6 C06         -0.6990    -0.0010     1.1510 c          1 6YG       0.697700
      7 O07         -1.9210    -0.0020     1.1290 o          1 6YG      -0.600100
      8 C08          2.0370     0.0010    -1.3170 c3         1 6YG      -0.081000
      9 C09          1.1440     0.6110    -2.3990 c3         1 6YG       0.162800
     10 N10          1.8490     0.5920    -3.6860 n3         1 6YG      -0.544600
     11 C11          2.1590    -0.7820    -4.1020 c3         1 6YG       0.137800
     12 C12          3.0830    -1.4330    -3.0710 c3         1 6YG      -0.019400
     13 C13          2.3920    -1.4370    -1.7050 c3         1 6YG      -0.024400
     14 C14          2.1380    -0.0020     3.6120 cc         1 6YG      -0.001900
     15 S15          3.8920    -0.0010     3.7340 ss         1 6YG      -0.232800
     16 C16          3.8200    -0.0030     5.4400 cc         1 6YG       0.002900
     17 C17          2.5540    -0.0040     5.8650 cd         1 6YG      -0.129000
     18 C18          1.6030     0.0030     4.8680 cd         1 6YG      -0.074000
     19 C19          1.0770     1.2940    -4.7200 c3         1 6YG       0.235100
     20 C20          1.9290     1.4690    -5.9500 ca         1 6YG      -0.385900
     21 C21          2.7240     2.5950    -6.1070 ca         1 6YG       0.489200
     22 N22          3.4590     2.7180    -7.2010 nb         1 6YG      -0.672000
     23 C23          3.4420     1.7820    -8.1360 ca         1 6YG       0.833300
     24 N24          2.6950     0.6960    -8.0180 nb         1 6YG      -0.672000
     25 C25          1.9400     0.5080    -6.9480 ca         1 6YG       0.489200
     26 O26          4.2070     1.9400    -9.2420 os         1 6YG      -0.409100
     27 C27          4.1540     0.9020   -10.2220 c3         1 6YG       0.257700
     28 H1          -0.5520    -0.0020     3.3200 ha         1 6YG       0.145000
     29 H3           2.9450     0.5850    -1.2300 hc         1 6YG       0.040700
     30 H4           0.9050     1.6340    -2.1340 h1         1 6YG       0.032200
     31 H5           0.2320     0.0320    -2.4810 h1         1 6YG       0.032200
     32 H7           1.2400    -1.3520    -4.1720 h1         1 6YG       0.017200
     33 H8           2.6520    -0.7640    -5.0660 h1         1 6YG       0.017200
     34 H9           3.2970    -2.4520    -3.3700 hc         1 6YG       0.021700
     35 H10          4.0050    -0.8680    -3.0060 hc         1 6YG       0.021700
     36 H11          3.0610    -1.8570    -0.9630 hc         1 6YG       0.020700
     37 H12          1.4870    -2.0300    -1.7600 hc         1 6YG       0.020700
     38 H13          4.6870    -0.0050     6.0900 h4         1 6YG       0.155000
     39 H14          2.2940    -0.0030     6.9170 ha         1 6YG       0.127000
     40 H15          0.5370     0.0030     5.0620 ha         1 6YG       0.136000
     41 H16          0.7750     2.2660    -4.3480 h1         1 6YG       0.017200
     42 H17          0.1970     0.7140    -4.9700 h1         1 6YG       0.017200
     43 H18          2.7420     3.3650    -5.3450 h4         1 6YG      -0.011400
     44 H19          1.3310    -0.3830    -6.8570 h4         1 6YG      -0.011400
     45 H20          4.8080     1.1520   -11.0490 h1         1 6YG       0.001367
     46 H21          4.4760    -0.0320    -9.7770 h1         1 6YG       0.001367
     47 H22          3.1380     0.7980   -10.5840 h1         1 6YG       0.001367
     48 H23          3.0140     0.0000     1.1110 hn         1 6YG       0.292800
@<TRIPOS>BOND
     1     1     2 2   
     2     1     6 1   
     3     2     3 1   
     4     2     8 1   
     5     3     4 1   
     6     3    48 1   
     7     4     5 2   
     8     4    14 1   
     9     5     6 1   
    10     5    28 1   
    11     6     7 2   
    12     8     9 1   
    13     8    13 1   
    14     8    29 1   
    15     9    10 1   
    16     9    30 1   
    17     9    31 1   
    18    10    11 1   
    19    10    19 1   
    20    11    12 1   
    21    11    32 1   
    22    11    33 1   
    23    12    13 1   
    24    12    34 1   
    25    12    35 1   
    26    13    36 1   
    27    13    37 1   
    28    14    15 1   
    29    14    18 2   
    30    15    16 1   
    31    16    17 2   
    32    16    38 1   
    33    17    18 1   
    34    17    39 1   
    35    18    40 1   
    36    19    20 1   
    37    19    41 1   
    38    19    42 1   
    39    20    21 ar  
    40    20    25 ar  
    41    21    22 ar  
    42    21    43 1   
    43    22    23 ar  
    44    23    24 ar  
    45    23    26 1   
    46    24    25 ar  
    47    25    44 1   
    48    26    27 1   
    49    27    45 1   
    50    27    46 1   
    51    27    47 1   
@<TRIPOS>SUBSTRUCTURE
     1 6YG         1 TEMP              0 ****  ****    0 ROOT
