@<TRIPOS>MOLECULE
molecule
   48    51     1     0     0
SMALL
bcc


@<TRIPOS>ATOM
      1 N01          0.0000     0.0000     0.0000 nc         1 6YG      -0.711100
      2 C02          1.3040     0.0000     0.0000 cd         1 6YG       0.666200
      3 N03          2.0140     0.0000     1.1450 na         1 6YG      -0.687000
      4 C04          1.3710    -0.0010     2.3610 cd         1 6YG       0.211800
      5 C05         -0.0110    -0.0010     2.3810 cc         1 6YG      -0.296200
      6 C06         -0.6990    -0.0010     1.1510 c          1 6YG       0.702700
      7 O07         -1.9210    -0.0020     1.1290 o          1 6YG      -0.562100
      8 C08          2.0370     0.0010    -1.3170 c3         1 6YG      -0.104000
      9 C09          1.1440     0.6110    -2.3990 c3         1 6YG       0.180800
     10 N10          1.8490     0.5920    -3.6860 n3         1 6YG      -0.737600
     11 C11          2.1590    -0.7820    -4.1020 c3         1 6YG       0.156800
     12 C12          3.0830    -1.4330    -3.0710 c3         1 6YG      -0.076400
     13 C13          2.3920    -1.4370    -1.7050 c3         1 6YG      -0.078400
     14 C14          2.1380    -0.0020     3.6120 cd         1 6YG      -0.051900
     15 S15          3.8920    -0.0010     3.7340 ss         1 6YG      -0.106800
     16 C16          3.8200    -0.0030     5.4400 cd         1 6YG      -0.082100
     17 C17          2.5540    -0.0040     5.8650 cc         1 6YG      -0.160000
     18 C18          1.6030     0.0030     4.8680 cc         1 6YG      -0.104000
     19 C19          1.0770     1.2940    -4.7200 c3         1 6YG       0.226100
     20 C20          1.9290     1.4690    -5.9500 ca         1 6YG      -0.380900
     21 C21          2.7240     2.5950    -6.1070 ca         1 6YG       0.504200
     22 N22          3.4590     2.7180    -7.2010 nb         1 6YG      -0.779000
     23 C23          3.4420     1.7820    -8.1360 ca         1 6YG       0.907300
     24 N24          2.6950     0.6960    -8.0180 nb         1 6YG      -0.779000
     25 C25          1.9400     0.5080    -6.9480 ca         1 6YG       0.504200
     26 O26          4.2070     1.9400    -9.2420 os         1 6YG      -0.412100
     27 C27          4.1540     0.9020   -10.2220 c3         1 6YG       0.140700
     28 H1          -0.5520    -0.0020     3.3200 ha         1 6YG       0.167000
     29 H3           2.9450     0.5850    -1.2300 hc         1 6YG       0.071700
     30 H4           0.9050     1.6340    -2.1340 h1         1 6YG       0.059700
     31 H5           0.2320     0.0320    -2.4810 h1         1 6YG       0.059700
     32 H7           1.2400    -1.3520    -4.1720 h1         1 6YG       0.039700
     33 H8           2.6520    -0.7640    -5.0660 h1         1 6YG       0.039700
     34 H9           3.2970    -2.4520    -3.3700 hc         1 6YG       0.053200
     35 H10          4.0050    -0.8680    -3.0060 hc         1 6YG       0.053200
     36 H11          3.0610    -1.8570    -0.9630 hc         1 6YG       0.051200
     37 H12          1.4870    -2.0300    -1.7600 hc         1 6YG       0.051200
     38 H13          4.6870    -0.0050     6.0900 h4         1 6YG       0.178000
     39 H14          2.2940    -0.0030     6.9170 ha         1 6YG       0.158000
     40 H15          0.5370     0.0030     5.0620 ha         1 6YG       0.164000
     41 H16          0.7750     2.2660    -4.3480 h1         1 6YG       0.045700
     42 H17          0.1970     0.7140    -4.9700 h1         1 6YG       0.045700
     43 H18          2.7420     3.3650    -5.3450 h4         1 6YG       0.034600
     44 H19          1.3310    -0.3830    -6.8570 h4         1 6YG       0.034600
     45 H20          4.8080     1.1520   -11.0490 h1         1 6YG       0.049700
     46 H21          4.4760    -0.0320    -9.7770 h1         1 6YG       0.049700
     47 H22          3.1380     0.7980   -10.5840 h1         1 6YG       0.049700
     48 H23          3.0140     0.0000     1.1110 hn         1 6YG       0.450800
@<TRIPOS>BOND
     1    12    11 1   
     2    12    13 1   
     3    11    10 1   
     4    13     8 1   
     5    10    19 1   
     6    10     9 1   
     7     8     9 1   
     8     8     2 1   
     9    19    20 1   
    10     1     2 2   
    11     1     6 1   
    12     2     3 1   
    13     7     6 2   
    14     6     5 1   
    15    20    25 ar  
    16    20    21 ar  
    17     3     4 1   
    18    25    24 ar  
    19     5     4 2   
    20    21    22 ar  
    21     4    14 1   
    22    24    23 ar  
    23    22    23 ar  
    24    14    15 1   
    25    14    18 2   
    26    23    26 1   
    27    15    16 1   
    28    18    17 1   
    29    26    27 1   
    30    16    17 2   
    31     5    28 1   
    32     8    29 1   
    33     9    30 1   
    34     9    31 1   
    35    11    32 1   
    36    11    33 1   
    37    12    34 1   
    38    12    35 1   
    39    13    36 1   
    40    13    37 1   
    41    16    38 1   
    42    17    39 1   
    43    18    40 1   
    44    19    41 1   
    45    19    42 1   
    46    21    43 1   
    47    25    44 1   
    48    27    45 1   
    49    27    46 1   
    50    27    47 1   
    51     3    48 1   
@<TRIPOS>SUBSTRUCTURE
     1 6YG         1 TEMP              0 ****  ****    0 ROOT
