@<TRIPOS>MOLECULE
6YH
   36    38     1     0     0
SMALL
bcc


@<TRIPOS>ATOM
      1 O12          0.0000     0.0000     0.0000 o          1 6YH      -0.475100
      2 C11          1.2130     0.0000     0.0000 c          1 6YH       0.564700
      3 C4           1.9490     0.0000     1.2750 ca         1 6YH      -0.073600
      4 C3           1.2520     0.0010     2.4890 ca         1 6YH      -0.066000
      5 C2           1.9490     0.0010     3.6780 ca         1 6YH       0.005000
      6 C5           3.3460    -0.0050     1.2790 ca         1 6YH      -0.066000
      7 C6           4.0290    -0.0040     2.4780 ca         1 6YH       0.005000
      8 C1           3.3330     0.0020     3.6750 ca         1 6YH      -0.214500
      9 S7           4.2130     0.0040     5.2000 sy         1 6YH       0.938200
     10 O9           3.3310     0.5480     6.1720 o          1 6YH      -0.491800
     11 N10          4.4600    -1.5780     5.6260 nz         1 6YH      -0.130500
     12 O8           5.4960     0.5480     4.9230 o          1 6YH      -0.491800
     13 C13          1.9660    -0.0060    -1.3050 c3         1 6YH      -0.105700
     14 N14          1.0140    -0.0120    -2.4180 na         1 6YH       0.286700
     15 C18          0.4090     1.0930    -2.9830 ca         1 6YH      -0.252200
     16 C20          0.4670     2.4580    -2.7380 ca         1 6YH      -0.102000
     17 C21         -0.2850     3.3220    -3.5050 ca         1 6YH      -0.071000
     18 C22         -1.0980     2.8360    -4.5200 ca         1 6YH      -0.113000
     19 C23         -1.1690     1.4950    -4.7740 ca         1 6YH      -0.025000
     20 C19         -0.4150     0.6000    -4.0100 ca         1 6YH       0.067400
     21 N17         -0.2720    -0.7500    -4.0190 nc         1 6YH      -0.487100
     22 C16          0.5680    -1.1070    -3.0910 cd         1 6YH       0.254700
     23 H1           0.1690    -0.0000     2.4940 ha         1 6YH       0.143000
     24 H2           1.4110     0.0030     4.6190 ha         1 6YH       0.130000
     25 H3           3.8920    -0.0100     0.3440 ha         1 6YH       0.143000
     26 H4           5.1130    -0.0060     2.4830 ha         1 6YH       0.130000
     27 H5           4.9930    -2.0360     4.9140 hn         1 6YH       0.314133
     28 H6           4.9580    -1.6160     6.4930 hn         1 6YH       0.314133
     29 H7           2.5890     0.8780    -1.3670 h1         1 6YH       0.052700
     30 H8           2.5900    -0.8910    -1.3580 h1         1 6YH       0.052700
     31 H9           1.1000     2.8430    -1.9470 ha         1 6YH       0.091000
     32 H10         -0.2400     4.3870    -3.3160 ha         1 6YH       0.106000
     33 H11         -1.6830     3.5270    -5.1150 ha         1 6YH       0.112000
     34 H12         -1.8070     1.1260    -5.5680 ha         1 6YH       0.116000
     35 H13          0.8690    -2.1270    -2.8850 h5         1 6YH       0.023800
     36 H103         3.5770    -2.0380     5.7270 hn         1 6YH       0.314133
@<TRIPOS>BOND
     1     1     2 2   
     2     2     3 1   
     3     2    13 1   
     4     3     4 ar  
     5     3     6 ar  
     6     4     5 ar  
     7     4    23 1   
     8     5     8 ar  
     9     5    24 1   
    10     6     7 ar  
    11     6    25 1   
    12     7     8 ar  
    13     7    26 1   
    14     8     9 1   
    15     9    10 2   
    16     9    11 1   
    17     9    12 2   
    18    11    27 1   
    19    11    28 1   
    20    11    36 1   
    21    13    14 1   
    22    13    29 1   
    23    13    30 1   
    24    14    15 1   
    25    14    22 1   
    26    15    16 ar  
    27    15    20 ar  
    28    16    17 ar  
    29    16    31 1   
    30    17    18 ar  
    31    17    32 1   
    32    18    19 ar  
    33    18    33 1   
    34    19    20 ar  
    35    19    34 1   
    36    20    21 1   
    37    21    22 2   
    38    22    35 1   
@<TRIPOS>SUBSTRUCTURE
     1 6YH         1 TEMP              0 ****  ****    0 ROOT
