@<TRIPOS>MOLECULE
molecule
   36    38     1     0     0
SMALL
bcc


@<TRIPOS>ATOM
      1 O12          0.0000     0.0000     0.0000 o          1 6YH      -0.439100
      2 C11          1.2130     0.0000     0.0000 c          1 6YH       0.521700
      3 C4           1.9490     0.0000     1.2750 ca         1 6YH      -0.072600
      4 C3           1.2520     0.0010     2.4890 ca         1 6YH      -0.092500
      5 C2           1.9490     0.0010     3.6780 ca         1 6YH      -0.035000
      6 C5           3.3460    -0.0050     1.2790 ca         1 6YH      -0.092500
      7 C6           4.0290    -0.0040     2.4780 ca         1 6YH      -0.035000
      8 C1           3.3330     0.0020     3.6750 ca         1 6YH      -0.329500
      9 S7           4.2130     0.0040     5.2000 sy         1 6YH       1.229200
     10 O9           3.3310     0.5480     6.1720 o          1 6YH      -0.512800
     11 N10          4.4600    -1.5780     5.6260 nz         1 6YH      -0.807500
     12 O8           5.4960     0.5480     4.9230 o          1 6YH      -0.512800
     13 C13          1.9660    -0.0060    -1.3050 c3         1 6YH      -0.030700
     14 N14          1.0140    -0.0120    -2.4180 na         1 6YH      -0.164300
     15 C18          0.4090     1.0930    -2.9830 ca         1 6YH      -0.088200
     16 C20          0.4670     2.4580    -2.7380 ca         1 6YH      -0.137000
     17 C21         -0.2850     3.3220    -3.5050 ca         1 6YH      -0.099000
     18 C22         -1.0980     2.8360    -4.5200 ca         1 6YH      -0.140000
     19 C23         -1.1690     1.4950    -4.7740 ca         1 6YH      -0.058000
     20 C19         -0.4150     0.6000    -4.0100 ca         1 6YH       0.097400
     21 N17         -0.2720    -0.7500    -4.0190 nc         1 6YH      -0.574100
     22 C16          0.5680    -1.1070    -3.0910 cd         1 6YH       0.426700
     23 H1           0.1690    -0.0000     2.4940 ha         1 6YH       0.177000
     24 H2           1.4110     0.0030     4.6190 ha         1 6YH       0.161500
     25 H3           3.8920    -0.0100     0.3440 ha         1 6YH       0.177000
     26 H4           5.1130    -0.0060     2.4830 ha         1 6YH       0.161500
     27 H5           4.9930    -2.0360     4.9140 hn         1 6YH       0.493467
     28 H6           4.9580    -1.6160     6.4930 hn         1 6YH       0.493467
     29 H7           2.5890     0.8780    -1.3670 h1         1 6YH       0.084700
     30 H8           2.5900    -0.8910    -1.3580 h1         1 6YH       0.084700
     31 H9           1.1000     2.8430    -1.9470 ha         1 6YH       0.116000
     32 H10         -0.2400     4.3870    -3.3160 ha         1 6YH       0.138000
     33 H11         -1.6830     3.5270    -5.1150 ha         1 6YH       0.143000
     34 H12         -1.8070     1.1260    -5.5680 ha         1 6YH       0.151000
     35 H13          0.8690    -2.1270    -2.8850 h5         1 6YH       0.070800
     36 H103         3.5770    -2.0380     5.7270 hn         1 6YH       0.493467
@<TRIPOS>BOND
     1    21    22 2
     2    21    20 1
     3    22    14 1
     4    20    19 ar
     5    20    15 ar
     6    14    15 1
     7    14    13 1
     8    19    18 ar
     9     1     2 2
    10    15    16 ar
    11    13     2 1
    12     2     3 1
    13    18    17 ar
    14     3     4 ar
    15     3     6 ar
    16    16    17 ar
    17     4     5 ar
    18     6     7 ar
    19     5     8 ar
    20     7     8 ar
    21     8     9 1
    22    11     9 1
    23    12     9 2
    24     9    10 2
    25     4    23 1
    26     5    24 1
    27     6    25 1
    28     7    26 1
    29    11    27 1
    30    11    28 1
    31    13    29 1
    32    13    30 1
    33    16    31 1
    34    17    32 1
    35    18    33 1
    36    19    34 1
    37    22    35 1
    38    36    11 1
@<TRIPOS>SUBSTRUCTURE
     1 6YH         1 TEMP              0 ****  ****    0 ROOT
