@<TRIPOS>MOLECULE
6YL
   53    55     1     0     0
SMALL
bcc


@<TRIPOS>ATOM
      1 C11          0.0000     0.0000     0.0000 ca         1 6YL      -0.060000
      2 C12          1.3790     0.0000     0.0000 ca         1 6YL      -0.141000
      3 C6          -1.9080     1.0610     5.9410 ca         1 6YL      -0.133000
      4 C14          1.3880     0.0130     2.4050 ca         1 6YL      -0.121000
      5 C4          -1.7080     2.3060     7.9890 ca         1 6YL       0.411200
      6 C27         -4.9250     1.9090     6.3120 cc         1 6YL      -0.241300
      7 C5          -2.5080     1.6540     7.0560 ca         1 6YL      -0.121300
      8 C23         -3.9800     1.5900     7.2420 cd         1 6YL      -0.251300
      9 C10         -0.6950     0.0070     1.2100 ca         1 6YL      -0.155600
     10 C9           0.0100     0.0130     2.4150 ca         1 6YL      -0.013300
     11 C1          -0.5320     1.1480     5.8100 ca         1 6YL      -0.035200
     12 C13          2.0750     0.0000     1.2000 ca         1 6YL       0.122900
     13 C24         -4.6540     1.1880     8.4120 cd         1 6YL       0.374600
     14 C2           0.2030     1.8200     6.7890 ca         1 6YL       0.480200
     15 C17         -2.1730     0.0080     1.2160 c          1 6YL       0.614700
     16 C28         -4.0060     0.7470     9.6990 c3         1 6YL      -0.006400
     17 C15         -1.1060    -1.4140     4.1090 c3         1 6YL      -0.033100
     18 C21         -4.3100    -0.9990     0.6200 c3         1 6YL       0.080300
     19 C22         -2.1250    -1.8870    -0.3160 c3         1 6YL       0.080300
     20 C8          -0.7350     0.0200     3.7260 c3         1 6YL       0.190400
     21 N3          -0.4000     2.3680     7.8310 nb         1 6YL      -0.623000
     22 N25         -5.9390     1.2650     8.1860 nc         1 6YL      -0.653800
     23 N26         -6.1350     1.7200     6.8780 na         1 6YL       0.486400
     24 N18          1.5870     1.9120     6.6680 nv         1 6YL      -0.542500
     25 N20         -2.8500    -0.9320     0.5260 n          1 6YL      -0.154800
     26 O19         -2.7780     0.8550     1.8420 o          1 6YL      -0.649100
     27 O7           0.0960     0.5850     4.7430 os         1 6YL      -0.303900
     28 F16          3.4260    -0.0000     1.1940 f          1 6YL      -0.125900
     29 H1          -0.5430    -0.0030    -0.9380 ha         1 6YL       0.116000
     30 H2           1.9190    -0.0080    -0.9390 ha         1 6YL       0.122000
     31 H3          -2.5050     0.5460     5.1980 ha         1 6YL       0.134000
     32 H4           1.9360     0.0160     3.3400 ha         1 6YL       0.137000
     33 H5          -2.1640     2.7680     8.8560 h4         1 6YL      -0.014900
     34 H6          -4.7380     2.3490     5.3400 h4         1 6YL       0.153000
     35 H7          -3.2020     0.0550     9.4800 hc         1 6YL       0.012367
     36 H8          -4.7430     0.2580    10.3250 hc         1 6YL       0.012367
     37 H9          -3.6080     1.6110    10.2170 hc         1 6YL       0.012367
     38 H10         -0.6700    -2.1030     3.3960 hc         1 6YL       0.017367
     39 H11         -0.7260    -1.6320     5.1000 hc         1 6YL       0.017367
     40 H12         -2.1840    -1.5220     4.1040 hc         1 6YL       0.017367
     41 H13         -7.4990     2.9760     5.9070 h1         1 6YL       0.020033
     42 H14         -7.5220     1.2900     5.3710 h1         1 6YL       0.020033
     43 H15         -8.2270     1.7310     6.9320 h1         1 6YL       0.020033
     44 H16         -4.5900    -1.5340     1.5190 h1         1 6YL       0.013700
     45 H17         -4.7040    -1.5170    -0.2460 h1         1 6YL       0.013700
     46 H18         -4.7160     0.0050     0.6550 h1         1 6YL       0.013700
     47 H19         -1.8680    -1.4150    -1.2570 h1         1 6YL       0.013700
     48 H20         -2.7520    -2.7500    -0.5040 h1         1 6YL       0.013700
     49 H21         -1.2200    -2.2010     0.1890 h1         1 6YL       0.013700
     50 H22         -1.6360     0.6120     3.6260 h1         1 6YL       0.075700
     51 H23          2.0220     1.7660     5.7780 hn         1 6YL       0.272300
     52 H24          2.1460     2.1390     7.4670 hn         1 6YL       0.272300
     53 C29         -7.4300     1.9440     6.2300 c3         1 6YL       0.025600
@<TRIPOS>BOND
     1     1     2 ar  
     2     1     9 ar  
     3     1    29 1   
     4     2    12 ar  
     5     2    30 1   
     6     3     7 ar  
     7     3    11 ar  
     8     3    31 1   
     9     4    10 ar  
    10     4    12 ar  
    11     4    32 1   
    12     5     7 ar  
    13     5    21 ar  
    14     5    33 1   
    15     6     8 2   
    16     6    23 1   
    17     6    34 1   
    18     7     8 1   
    19     8    13 1   
    20     9    10 ar  
    21     9    15 1   
    22    10    20 1   
    23    11    14 ar  
    24    11    27 1   
    25    12    28 1   
    26    13    16 1   
    27    13    22 2   
    28    14    21 ar  
    29    14    24 1   
    30    15    25 1   
    31    15    26 2   
    32    16    35 1   
    33    16    36 1   
    34    16    37 1   
    35    17    20 1   
    36    17    38 1   
    37    17    39 1   
    38    17    40 1   
    39    18    25 1   
    40    18    44 1   
    41    18    45 1   
    42    18    46 1   
    43    19    25 1   
    44    19    47 1   
    45    19    48 1   
    46    19    49 1   
    47    20    27 1   
    48    20    50 1   
    49    22    23 1   
    50    23    53 1   
    51    24    51 1   
    52    24    52 1   
    53    41    53 1   
    54    42    53 1   
    55    43    53 1   
@<TRIPOS>SUBSTRUCTURE
     1 6YL         1 TEMP              0 ****  ****    0 ROOT
