@<TRIPOS>MOLECULE
molecule
   53    55     1     0     0
SMALL
bcc


@<TRIPOS>ATOM
      1 C11          0.0000     0.0000     0.0000 ca         1 6YL      -0.082000
      2 C12          1.3790     0.0000     0.0000 ca         1 6YL      -0.176000
      3 C6          -1.9080     1.0610     5.9410 ca         1 6YL      -0.143000
      4 C14          1.3880     0.0130     2.4050 ca         1 6YL      -0.151000
      5 C4          -1.7080     2.3060     7.9890 ca         1 6YL       0.435200
      6 C27         -4.9250     1.9090     6.3120 cc         1 6YL      -0.098300
      7 C5          -2.5080     1.6540     7.0560 ca         1 6YL      -0.139300
      8 C23         -3.9800     1.5900     7.2420 cd         1 6YL      -0.257300
      9 C10         -0.6950     0.0070     1.2100 ca         1 6YL      -0.153600
     10 C9           0.0100     0.0130     2.4150 ca         1 6YL      -0.009300
     11 C1          -0.5320     1.1480     5.8100 ca         1 6YL      -0.042200
     12 C13          2.0750     0.0000     1.2000 ca         1 6YL       0.148900
     13 C24         -4.6540     1.1880     8.4120 cd         1 6YL       0.351600
     14 C2           0.2030     1.8200     6.7890 ca         1 6YL       0.683200
     15 C17         -2.1730     0.0080     1.2160 c          1 6YL       0.678700
     16 C28         -4.0060     0.7470     9.6990 c3         1 6YL      -0.110400
     17 C15         -1.1060    -1.4140     4.1090 c3         1 6YL      -0.118100
     18 C21         -4.3100    -0.9990     0.6200 c3         1 6YL       0.095800
     19 C22         -2.1250    -1.8870    -0.3160 c3         1 6YL       0.095800
     20 C8          -0.7350     0.0200     3.7260 c3         1 6YL       0.172400
     21 N3          -0.4000     2.3680     7.8310 nb         1 6YL      -0.733000
     22 N25         -5.9390     1.2650     8.1860 nc         1 6YL      -0.517800
     23 N26         -6.1350     1.7200     6.8780 na         1 6YL       0.064400
     24 N18          1.5870     1.9120     6.6680 nv         1 6YL      -1.015500
     25 N20         -2.8500    -0.9320     0.5260 n          1 6YL      -0.491800
     26 O19         -2.7780     0.8550     1.8420 o          1 6YL      -0.607100
     27 O7           0.0960     0.5850     4.7430 os         1 6YL      -0.335900
     28 F16          3.4260    -0.0000     1.1940 f          1 6YL      -0.135900
     29 H1          -0.5430    -0.0030    -0.9380 ha         1 6YL       0.144000
     30 H2           1.9190    -0.0080    -0.9390 ha         1 6YL       0.149000
     31 H3          -2.5050     0.5460     5.1980 ha         1 6YL       0.151000
     32 H4           1.9360     0.0160     3.3400 ha         1 6YL       0.166000
     33 H5          -2.1640     2.7680     8.8560 h4         1 6YL       0.028100
     34 H6          -4.7380     2.3490     5.3400 h4         1 6YL       0.178000
     35 H7          -3.2020     0.0550     9.4800 hc         1 6YL       0.051033
     36 H8          -4.7430     0.2580    10.3250 hc         1 6YL       0.051033
     37 H9          -3.6080     1.6110    10.2170 hc         1 6YL       0.051033
     38 H10         -0.6700    -2.1030     3.3960 hc         1 6YL       0.050700
     39 H11         -0.7260    -1.6320     5.1000 hc         1 6YL       0.050700
     40 H12         -2.1840    -1.5220     4.1040 hc         1 6YL       0.050700
     41 H13         -7.4990     2.9760     5.9070 h1         1 6YL       0.053700
     42 H14         -7.5220     1.2900     5.3710 h1         1 6YL       0.053700
     43 H15         -8.2270     1.7310     6.9320 h1         1 6YL       0.053700
     44 H16         -4.5900    -1.5340     1.5190 h1         1 6YL       0.043867
     45 H17         -4.7040    -1.5170    -0.2460 h1         1 6YL       0.043867
     46 H18         -4.7160     0.0050     0.6550 h1         1 6YL       0.043867
     47 H19         -1.8680    -1.4150    -1.2570 h1         1 6YL       0.043867
     48 H20         -2.7520    -2.7500    -0.5040 h1         1 6YL       0.043867
     49 H21         -1.2200    -2.2010     0.1890 h1         1 6YL       0.043867
     50 H22         -1.6360     0.6120     3.6260 h1         1 6YL       0.096700
     51 H23          2.0220     1.7660     5.7780 hn         1 6YL       0.441300
     52 H24          2.1460     2.1390     7.4670 hn         1 6YL       0.441300
     53 C29         -7.4300     1.9440     6.2300 c3         1 6YL       0.065600
@<TRIPOS>BOND
     1    18    25 1
     2    53    23 1
     3    25    19 1
     4    25    15 1
     5    26    15 2
     6    23    22 1
     7    23     6 1
     8    22    13 2
     9    15     9 1
    10     6     8 2
    11    13    16 1
    12    13     8 1
    13     8     7 1
    14     9     1 ar
    15     9    10 ar
    16    17    20 1
    17    20    10 1
    18    20    27 1
    19     3     7 ar
    20     3    11 ar
    21     7     5 ar
    22     1     2 ar
    23    10     4 ar
    24    27    11 1
    25    11    14 ar
    26     5    21 ar
    27    14    21 ar
    28    14    24 1
    29     2    12 ar
    30     4    12 ar
    31    12    28 1
    32     1    29 1
    33     2    30 1
    34     3    31 1
    35     4    32 1
    36     5    33 1
    37     6    34 1
    38    16    35 1
    39    16    36 1
    40    16    37 1
    41    17    38 1
    42    17    39 1
    43    17    40 1
    44    53    41 1
    45    53    42 1
    46    53    43 1
    47    18    44 1
    48    18    45 1
    49    18    46 1
    50    19    47 1
    51    19    48 1
    52    19    49 1
    53    20    50 1
    54    24    51 1
    55    24    52 1
@<TRIPOS>SUBSTRUCTURE
     1 6YL         1 TEMP              0 ****  ****    0 ROOT
