@<TRIPOS>MOLECULE
6YN
   53    57     1     0     0
SMALL
bcc


@<TRIPOS>ATOM
      1 F1           0.0000     0.0000     0.0000 f          1 6YN      -0.117900
      2 C12          1.3510     0.0000     0.0000 ca         1 6YN       0.156900
      3 C11          2.0440     0.0000     1.1960 ca         1 6YN      -0.145500
      4 C2           3.4270    -0.0020     1.1980 ca         1 6YN      -0.032000
      5 C1           4.1260    -0.0020     0.0050 ca         1 6YN      -0.145500
      6 C10          3.4460    -0.0030    -1.1990 ca         1 6YN       0.156900
      7 F2           4.1310    -0.0040    -2.3630 f          1 6YN      -0.117900
      8 C3           2.0510    -0.0070    -1.2070 ca         1 6YN      -0.232500
      9 C4           1.3140    -0.0080    -2.4940 cc         1 6YN       0.552800
     10 C7           0.9650     1.2230    -3.0970 cc         1 6YN      -0.284300
     11 C6           0.2900     1.2400    -4.2750 cd         1 6YN       0.075000
     12 N1           1.0020    -1.1500    -3.0590 nd         1 6YN      -0.636800
     13 N2           0.3070    -1.1770    -4.2720 na         1 6YN       0.582300
     14 C5          -0.0530     0.0170    -4.8840 cd         1 6YN      -0.374300
     15 C9          -0.7150    -0.3240    -6.0440 cc         1 6YN       0.074600
     16 N3          -0.7480    -1.6570    -6.1110 nc         1 6YN      -0.528300
     17 C8          -0.1370    -2.1750    -5.0660 cd         1 6YN       0.248700
     18 N4           0.0170    -3.5330    -4.8140 nu         1 6YN      -0.216600
     19 C13         -0.5760    -4.4750    -5.6640 ca         1 6YN      -0.054700
     20 C17         -1.4290    -4.0690    -6.6780 ca         1 6YN       0.331200
     21 N5          -1.9900    -4.9520    -7.4820 nb         1 6YN      -0.519000
     22 C16         -1.7690    -6.2470    -7.3600 ca         1 6YN       0.377200
     23 C15         -0.9340    -6.7350    -6.3740 ca         1 6YN      -0.224300
     24 C14         -0.3140    -5.8410    -5.5060 ca         1 6YN      -0.097400
     25 N6           0.5430    -6.2940    -4.5040 nh         1 6YN      -0.364000
     26 C22         -0.1580    -7.1980    -3.5830 c3         1 6YN       0.142800
     27 C18          1.7320    -6.9370    -5.0780 c3         1 6YN       0.135800
     28 C19          2.7130    -7.2900    -3.9570 c3         1 6YN      -0.014400
     29 C20          2.0290    -8.2330    -2.9630 c3         1 6YN      -0.030400
     30 C21          0.7670    -7.5580    -2.4180 c3         1 6YN      -0.091500
     31 N7           0.0730    -8.4790    -1.5080 nz         1 6YN       0.080400
     32 H1           1.5020     0.0010     2.1350 ha         1 6YN       0.130500
     33 H2           3.9650    -0.0010     2.1380 ha         1 6YN       0.117000
     34 H3           5.2090    -0.0040     0.0140 ha         1 6YN       0.130500
     35 H4           1.2360     2.1560    -2.6160 ha         1 6YN       0.138000
     36 H5           0.0200     2.1800    -4.7410 ha         1 6YN       0.123000
     37 H6          -1.1390     0.3640    -6.7650 h4         1 6YN       0.154000
     38 H7           0.5190    -3.8370    -4.0030 hn         1 6YN       0.293800
     39 H8          -1.6370    -3.0140    -6.8130 h4         1 6YN       0.072100
     40 H9          -2.2530    -6.9380    -8.0400 h4         1 6YN      -0.011900
     41 H10         -0.7570    -7.8000    -6.2830 ha         1 6YN       0.106000
     42 H11         -1.0440    -6.7060    -3.2000 h1         1 6YN       0.030200
     43 H12         -0.4400    -8.1010    -4.1100 h1         1 6YN       0.030200
     44 H13          2.2090    -6.2570    -5.7730 h1         1 6YN       0.037200
     45 H14          1.4370    -7.8420    -5.5960 h1         1 6YN       0.037200
     46 H15          3.5820    -7.7800    -4.3790 hc         1 6YN       0.043700
     47 H16          3.0150    -6.3850    -3.4450 hc         1 6YN       0.043700
     48 H17          2.7050    -8.4490    -2.1450 hc         1 6YN       0.031700
     49 H18          1.7570    -9.1530    -3.4670 hc         1 6YN       0.031700
     50 H19          1.0430    -6.6560    -1.8850 hx         1 6YN       0.103700
     51 H20         -0.1450    -9.3270    -1.9930 hn         1 6YN       0.223467
     52 H21         -0.7730    -8.0540    -1.1840 hn         1 6YN       0.223467
     53 H73          0.6640    -8.6840    -0.7260 hn         1 6YN       0.223467
@<TRIPOS>BOND
     1     1     2 1   
     2     2     3 ar  
     3     2     8 ar  
     4     3     4 ar  
     5     3    32 1   
     6     4     5 ar  
     7     4    33 1   
     8     5     6 ar  
     9     5    34 1   
    10     6     7 1   
    11     6     8 ar  
    12     8     9 1   
    13     9    10 1   
    14     9    12 2   
    15    10    11 2   
    16    10    35 1   
    17    11    14 1   
    18    11    36 1   
    19    12    13 1   
    20    13    14 1   
    21    13    17 1   
    22    14    15 2   
    23    15    16 1   
    24    15    37 1   
    25    16    17 2   
    26    17    18 1   
    27    18    19 1   
    28    18    38 1   
    29    19    20 ar  
    30    19    24 ar  
    31    20    21 ar  
    32    20    39 1   
    33    21    22 ar  
    34    22    23 ar  
    35    22    40 1   
    36    23    24 ar  
    37    23    41 1   
    38    24    25 1   
    39    25    26 1   
    40    25    27 1   
    41    26    30 1   
    42    26    42 1   
    43    26    43 1   
    44    27    28 1   
    45    27    44 1   
    46    27    45 1   
    47    28    29 1   
    48    28    46 1   
    49    28    47 1   
    50    29    30 1   
    51    29    48 1   
    52    29    49 1   
    53    30    31 1   
    54    30    50 1   
    55    31    51 1   
    56    31    52 1   
    57    31    53 1   
@<TRIPOS>SUBSTRUCTURE
     1 6YN         1 TEMP              0 ****  ****    0 ROOT
