@<TRIPOS>MOLECULE
6YP
   30    30     1     0     0
SMALL
bcc


@<TRIPOS>ATOM
      1 C4           0.0000     0.0000     0.0000 ca         1 6YP       0.026700
      2 C2          -1.0100    -1.4330    -1.7530 c3         1 6YP      -0.022400
      3 C6           2.0730     0.0000     1.1960 ca         1 6YP       0.015500
      4 C5           1.3820     0.0000     0.0000 ca         1 6YP      -0.108000
      5 C8           0.0010     0.0000     2.3940 ca         1 6YP       0.015500
      6 O1           3.5480    -0.5410     3.6420 o          1 6YP      -0.495800
      7 O            1.3840    -0.5410     4.8920 o          1 6YP      -0.495800
      8 N            2.5090     1.5850     4.3420 nz         1 6YP      -0.133500
      9 C7           1.3830     0.0010     2.3940 ca         1 6YP      -0.236500
     10 C9          -0.6910     0.0000     1.1970 ca         1 6YP      -0.108000
     11 C3          -0.7550     0.0060    -1.3040 c3         1 6YP       0.005900
     12 C1          -1.7750    -1.4270    -3.0780 c3         1 6YP      -0.025400
     13 C           -2.0310    -2.8680    -3.5260 c3         1 6YP       0.007900
     14 H1          -0.0630    -1.9440    -1.8850 hc         1 6YP       0.019700
     15 H2          -1.5950    -1.9480    -1.0000 hc         1 6YP       0.019700
     16 H3           3.1570     0.0000     1.1950 ha         1 6YP       0.125000
     17 H4           1.9230    -0.0010    -0.9380 ha         1 6YP       0.135000
     18 H5          -0.5410     0.0010     3.3330 ha         1 6YP       0.125000
     19 H6           3.0090     1.6250     5.2080 hn         1 6YP       0.312800
     20 H7           1.6370     2.0660     4.4380 hn         1 6YP       0.312800
     21 H8          -1.7740    -0.0000     1.1980 ha         1 6YP       0.135000
     22 H9          -0.1700     0.5210    -2.0570 hc         1 6YP       0.033700
     23 H10         -1.7010     0.5160    -1.1720 hc         1 6YP       0.033700
     24 H11         -1.1890    -0.9130    -3.8300 hc         1 6YP       0.016700
     25 H12         -2.7210    -0.9170    -2.9460 hc         1 6YP       0.016700
     26 H13         -2.5730    -2.8630    -4.4650 hc         1 6YP       0.006367
     27 H14         -2.6170    -3.3820    -2.7740 hc         1 6YP       0.006367
     28 H15         -1.0850    -3.3790    -3.6580 hc         1 6YP       0.006367
     29 S            2.2650     0.0030     3.9190 sy         1 6YP       0.936200
     30 HN3          3.0340     2.0570     3.6320 hn         1 6YP       0.312800
@<TRIPOS>BOND
     1     1     4 ar  
     2     1    10 ar  
     3     1    11 1   
     4     2    11 1   
     5     2    12 1   
     6     2    14 1   
     7     2    15 1   
     8     3     4 ar  
     9     3     9 ar  
    10     3    16 1   
    11     4    17 1   
    12     5     9 ar  
    13     5    10 ar  
    14     5    18 1   
    15     6    29 2   
    16     7    29 2   
    17     8    19 1   
    18     8    20 1   
    19     8    29 1   
    20     8    30 1   
    21     9    29 1   
    22    10    21 1   
    23    11    22 1   
    24    11    23 1   
    25    12    13 1   
    26    12    24 1   
    27    12    25 1   
    28    13    26 1   
    29    13    27 1   
    30    13    28 1   
@<TRIPOS>SUBSTRUCTURE
     1 6YP         1 TEMP              0 ****  ****    0 ROOT
