@<TRIPOS>MOLECULE
molecule
   30    30     1     0     0
SMALL
bcc


@<TRIPOS>ATOM
      1 C4           0.0000     0.0000     0.0000 ca         1 6YP       0.028700
      2 C2          -1.0100    -1.4330    -1.7530 c3         1 6YP      -0.077400
      3 C6           2.0730     0.0000     1.1960 ca         1 6YP      -0.024500
      4 C5           1.3820     0.0000     0.0000 ca         1 6YP      -0.132500
      5 C8           0.0010     0.0000     2.3940 ca         1 6YP      -0.024500
      6 O1           3.5480    -0.5410     3.6420 o          1 6YP      -0.519800
      7 O            1.3840    -0.5410     4.8920 o          1 6YP      -0.519800
      8 N            2.5090     1.5850     4.3420 nz         1 6YP      -0.805500
      9 C7           1.3830     0.0010     2.3940 ca         1 6YP      -0.350500
     10 C9          -0.6910     0.0000     1.1970 ca         1 6YP      -0.132500
     11 C3          -0.7550     0.0060    -1.3040 c3         1 6YP      -0.059100
     12 C1          -1.7750    -1.4270    -3.0780 c3         1 6YP      -0.083400
     13 C           -2.0310    -2.8680    -3.5260 c3         1 6YP      -0.091100
     14 H1          -0.0630    -1.9440    -1.8850 hc         1 6YP       0.050200
     15 H2          -1.5950    -1.9480    -1.0000 hc         1 6YP       0.050200
     16 H3           3.1570     0.0000     1.1950 ha         1 6YP       0.155000
     17 H4           1.9230    -0.0010    -0.9380 ha         1 6YP       0.166000
     18 H5          -0.5410     0.0010     3.3330 ha         1 6YP       0.155000
     19 H6           3.0090     1.6250     5.2080 hn         1 6YP       0.490467
     20 H7           1.6370     2.0660     4.4380 hn         1 6YP       0.490467
     21 H8          -1.7740    -0.0000     1.1980 ha         1 6YP       0.166000
     22 H9          -0.1700     0.5210    -2.0570 hc         1 6YP       0.067700
     23 H10         -1.7010     0.5160    -1.1720 hc         1 6YP       0.067700
     24 H11         -1.1890    -0.9130    -3.8300 hc         1 6YP       0.045700
     25 H12         -2.7210    -0.9170    -2.9460 hc         1 6YP       0.045700
     26 H13         -2.5730    -2.8630    -4.4650 hc         1 6YP       0.041033
     27 H14         -2.6170    -3.3820    -2.7740 hc         1 6YP       0.041033
     28 H15         -1.0850    -3.3790    -3.6580 hc         1 6YP       0.041033
     29 S            2.2650     0.0030     3.9190 sy         1 6YP       1.227200
     30 HN3          3.0340     2.0570     3.6320 hn         1 6YP       0.490467
@<TRIPOS>BOND
     1    11     1 1
     2    11     2 1
     3    12     2 1
     4    12    13 1
     5     1     4 ar
     6     1    10 ar
     7     4     3 ar
     8    10     5 ar
     9     3     9 ar
    10     5     9 ar
    11     9    29 1
    12     8    29 1
    13     7    29 2
    14    29     6 2
    15     2    14 1
    16     2    15 1
    17     3    16 1
    18     4    17 1
    19     5    18 1
    20     8    19 1
    21     8    20 1
    22    10    21 1
    23    11    22 1
    24    11    23 1
    25    12    24 1
    26    12    25 1
    27    13    26 1
    28    13    27 1
    29    13    28 1
    30    30     8 1
@<TRIPOS>SUBSTRUCTURE
     1 6YP         1 TEMP              0 ****  ****    0 ROOT
