@<TRIPOS>MOLECULE
molecule
   36    38     1     0     0
SMALL
bcc


@<TRIPOS>ATOM
      1 Cl1          0.0000     0.0000     0.0000 cl         1 6YQ      -0.067400
      2 C6           1.7360     0.0000     0.0000 ca         1 6YQ       0.079400
      3 C1           2.4280     0.0000     1.2000 ca         1 6YQ      -0.324500
      4 S7           1.5400    -0.0010     2.7230 sy         1 6YQ       1.242200
      5 O9           2.5150     0.0330     3.7560 o          1 6YQ      -0.507300
      6 N10          0.7150     1.4330     2.8100 nz         1 6YQ      -0.810500
      7 O8           0.5580    -1.0220     2.6140 o          1 6YQ      -0.507300
      8 C5           2.4240    -0.0040    -1.1960 ca         1 6YQ      -0.066000
      9 C4           3.8230    -0.0040    -1.1940 ca         1 6YQ      -0.068600
     10 C3           4.5130     0.0010     0.0230 ca         1 6YQ      -0.105000
     11 C2           3.8110     0.0000     1.2100 ca         1 6YQ      -0.010000
     12 C11          4.5650    -0.0090    -2.4640 c          1 6YQ       0.522700
     13 O12          3.9640    -0.0140    -3.5170 o          1 6YQ      -0.436100
     14 C13          6.0710    -0.0090    -2.4570 c3         1 6YQ      -0.029700
     15 N14          6.5670    -0.0150    -3.8360 na         1 6YQ      -0.164300
     16 C18          6.7530     1.0880    -4.6440 ca         1 6YQ      -0.090200
     17 C20          6.5620     2.4540    -4.4740 ca         1 6YQ      -0.139000
     18 C21          6.8510     3.3170    -5.5090 ca         1 6YQ      -0.100000
     19 C22          7.3300     2.8310    -6.7180 ca         1 6YQ      -0.141000
     20 C23          7.5240     1.4920    -6.9020 ca         1 6YQ      -0.056000
     21 C19          7.2370     0.5970    -5.8670 ca         1 6YQ       0.098400
     22 N17          7.3220    -0.7530    -5.7460 nc         1 6YQ      -0.573100
     23 C16          6.9350    -1.1090    -4.5550 cd         1 6YQ       0.430700
     24 H1          -0.0990     1.3850     2.2300 hn         1 6YQ       0.495467
     25 H2           0.4400     1.6030     3.7570 hn         1 6YQ       0.495467
     26 H3           1.8830    -0.0080    -2.1340 ha         1 6YQ       0.199000
     27 H4           5.5960     0.0010     0.0340 ha         1 6YQ       0.170000
     28 H5           4.3450     0.0020     2.1530 ha         1 6YQ       0.179000
     29 H6           6.4300    -0.8910    -1.9410 h1         1 6YQ       0.085700
     30 H7           6.4300     0.8780    -1.9480 h1         1 6YQ       0.085700
     31 H8           6.1880     2.8390    -3.5330 ha         1 6YQ       0.112000
     32 H9           6.7030     4.3820    -5.3780 ha         1 6YQ       0.136000
     33 H10          7.5530     3.5210    -7.5220 ha         1 6YQ       0.143000
     34 H11          7.8990     1.1230    -7.8490 ha         1 6YQ       0.152000
     35 H12          6.9090    -2.1290    -4.1900 h5         1 6YQ       0.074800
     36 H103         1.3030     2.1770     2.4910 hn         1 6YQ       0.495467
@<TRIPOS>BOND
     1    14    15 1   
     2    14    12 1   
     3    10    11 ar  
     4    10     9 ar  
     5    23    15 1   
     6    23    22 2   
     7    15    16 1   
     8    11     3 ar  
     9     6     4 1   
    10    22    21 1   
    11    16    21 ar  
    12    16    17 ar  
    13    21    20 ar  
    14    17    18 ar  
    15    12     9 1   
    16    12    13 2   
    17     9     8 ar  
    18    20    19 ar  
    19    18    19 ar  
    20     3     4 1   
    21     3     2 ar  
    22     4     7 2   
    23     4     5 2   
    24     8     2 ar  
    25     2     1 1   
    26     6    24 1   
    27     6    25 1   
    28     8    26 1   
    29    10    27 1   
    30    11    28 1   
    31    14    29 1   
    32    14    30 1   
    33    17    31 1   
    34    18    32 1   
    35    19    33 1   
    36    20    34 1   
    37    23    35 1   
    38    36     6 1   
@<TRIPOS>SUBSTRUCTURE
     1 6YQ         1 TEMP              0 ****  ****    0 ROOT
