@<TRIPOS>MOLECULE
6YQ
   36    38     1     0     0
SMALL
bcc


@<TRIPOS>ATOM
      1 Cl1          0.0000     0.0000     0.0000 cl         1 6YQ       0.037600
      2 C6           1.7360     0.0000     0.0000 ca         1 6YQ       0.008400
      3 C1           2.4280     0.0000     1.2000 ca         1 6YQ      -0.205500
      4 S7           1.5400    -0.0010     2.7230 sy         1 6YQ       0.941200
      5 O9           2.5150     0.0330     3.7560 o          1 6YQ      -0.488300
      6 N10          0.7150     1.4330     2.8100 nz         1 6YQ      -0.144500
      7 O8           0.5580    -1.0220     2.6140 o          1 6YQ      -0.488300
      8 C5           2.4240    -0.0040    -1.1960 ca         1 6YQ      -0.039000
      9 C4           3.8230    -0.0040    -1.1940 ca         1 6YQ      -0.068600
     10 C3           4.5130     0.0010     0.0230 ca         1 6YQ      -0.080000
     11 C2           3.8110     0.0000     1.2100 ca         1 6YQ       0.033000
     12 C11          4.5650    -0.0090    -2.4640 c          1 6YQ       0.565700
     13 O12          3.9640    -0.0140    -3.5170 o          1 6YQ      -0.474100
     14 C13          6.0710    -0.0090    -2.4570 c3         1 6YQ      -0.104700
     15 N14          6.5670    -0.0150    -3.8360 na         1 6YQ       0.287700
     16 C18          6.7530     1.0880    -4.6440 ca         1 6YQ      -0.254200
     17 C20          6.5620     2.4540    -4.4740 ca         1 6YQ      -0.104000
     18 C21          6.8510     3.3170    -5.5090 ca         1 6YQ      -0.073000
     19 C22          7.3300     2.8310    -6.7180 ca         1 6YQ      -0.114000
     20 C23          7.5240     1.4920    -6.9020 ca         1 6YQ      -0.022000
     21 C19          7.2370     0.5970    -5.8670 ca         1 6YQ       0.069400
     22 N17          7.3220    -0.7530    -5.7460 nc         1 6YQ      -0.487100
     23 C16          6.9350    -1.1090    -4.5550 cd         1 6YQ       0.258700
     24 H1          -0.0990     1.3850     2.2300 hn         1 6YQ       0.317800
     25 H2           0.4400     1.6030     3.7570 hn         1 6YQ       0.317800
     26 H3           1.8830    -0.0080    -2.1340 ha         1 6YQ       0.160000
     27 H4           5.5960     0.0010     0.0340 ha         1 6YQ       0.137000
     28 H5           4.3450     0.0020     2.1530 ha         1 6YQ       0.144000
     29 H6           6.4300    -0.8910    -1.9410 h1         1 6YQ       0.053700
     30 H7           6.4300     0.8780    -1.9480 h1         1 6YQ       0.053700
     31 H8           6.1880     2.8390    -3.5330 ha         1 6YQ       0.087000
     32 H9           6.7030     4.3820    -5.3780 ha         1 6YQ       0.104000
     33 H10          7.5530     3.5210    -7.5220 ha         1 6YQ       0.112000
     34 H11          7.8990     1.1230    -7.8490 ha         1 6YQ       0.117000
     35 H12          6.9090    -2.1290    -4.1900 h5         1 6YQ       0.026800
     36 H103         1.3030     2.1770     2.4910 hn         1 6YQ       0.317800
@<TRIPOS>BOND
     1     1     2 1   
     2     2     3 ar  
     3     2     8 ar  
     4     3     4 1   
     5     3    11 ar  
     6     4     5 2   
     7     4     6 1   
     8     4     7 2   
     9     6    24 1   
    10     6    25 1   
    11     6    36 1   
    12     8     9 ar  
    13     8    26 1   
    14     9    10 ar  
    15     9    12 1   
    16    10    11 ar  
    17    10    27 1   
    18    11    28 1   
    19    12    13 2   
    20    12    14 1   
    21    14    15 1   
    22    14    29 1   
    23    14    30 1   
    24    15    16 1   
    25    15    23 1   
    26    16    17 ar  
    27    16    21 ar  
    28    17    18 ar  
    29    17    31 1   
    30    18    19 ar  
    31    18    32 1   
    32    19    20 ar  
    33    19    33 1   
    34    20    21 ar  
    35    20    34 1   
    36    21    22 1   
    37    22    23 2   
    38    23    35 1   
@<TRIPOS>SUBSTRUCTURE
     1 6YQ         1 TEMP              0 ****  ****    0 ROOT
