@<TRIPOS>MOLECULE
6YS
   38    41     1     0     0
SMALL
bcc


@<TRIPOS>ATOM
      1 C7           0.0000     0.0000     0.0000 c2         1 6YS       0.415000
      2 C6           8.2920     1.0930     0.6440 ca         1 6YS      -0.127000
      3 C1          10.0900    -0.4850     0.8380 ca         1 6YS      -0.101000
      4 C5          10.5440     1.8710     0.9280 ca         1 6YS       0.037000
      5 C4          10.9910     0.5580     0.9660 ca         1 6YS       0.023000
      6 C3           9.1960     2.1400     0.7730 ca         1 6YS      -0.098000
      7 C2           8.7430    -0.2210     0.6780 ca         1 6YS      -0.090000
      8 C8           4.3540    -2.4720     0.9820 c2         1 6YS       0.380000
      9 C9           1.5060     0.0000     0.0000 cx         1 6YS      -0.094000
     10 C10          2.2130     0.0000     1.3580 cx         1 6YS      -0.148000
     11 C11          2.2120    -1.2680     0.4860 cx         1 6YS      -0.224000
     12 C12          4.3290    -0.1030     0.1490 DU         1 6YS      -0.155000
     13 C13          3.6730     0.4920     1.4210 c3         1 6YS       0.097000
     14 C14          3.6730    -1.5030     0.0490 c3         1 6YS      -0.247000
     15 C15          5.8430    -0.2250     0.3270 c3         1 6YS      -0.420000
     16 N16          3.7230    -1.9960    -1.3340 nz         1 6YS       0.863000
     17 O17         -0.6710     1.0860    -0.4150 o          1 6YS      -0.606500
     18 O19         -0.6040    -0.9780     0.3700 o          1 6YS      -0.606500
     19 O21          3.7230     1.9190     1.3870 oh         1 6YS      -0.304000
     20 F22         12.3070     0.2980     1.1230 f          1 6YS      -0.091000
     21 F23         11.4250     2.8880     1.0530 f          1 6YS      -0.090000
     22 S24          6.5740     1.4310     0.4460 ss         1 6YS      -0.020000
     23 H1          10.4410    -1.5090     0.8660 ha         1 6YS       0.124000
     24 H2           8.8470     3.1650     0.7450 ha         1 6YS       0.131000
     25 H3           8.0380    -1.0380     0.5770 ha         1 6YS       0.170000
     26 H4           2.0290     0.5370    -0.7820 hc         1 6YS       0.066000
     27 H5           1.6250    -0.1150     2.2610 hc         1 6YS       0.132000
     28 H6           1.6250    -2.0700     0.9180 hc         1 6YS       0.170000
     29 H7           4.0850     0.4950    -0.7210 ha         1 6YS       0.086000
     30 H8           4.1620     0.1100     2.3090 h1         1 6YS       0.088000
     31 H9           5.3180     0.2120    -0.5140 DU         1 6YS       0.297000
     32 H10          5.4920    -0.2810     1.3510 h1         1 6YS       0.223000
     33 H11          3.1630    -1.4070    -1.9180 hn         1 6YS       0.009333
     34 H12          4.6700    -1.9840    -1.6580 hn         1 6YS       0.009333
     35 H16          3.6660     2.2560     2.2660 ho         1 6YS       0.202000
     36 O20          5.3990    -3.1950     0.5510 o          1 6YS      -0.556000
     37 H163         3.3710    -2.9320    -1.3670 hn         1 6YS       0.009333
     38 O18          3.9580    -2.5970     2.1160 o          1 6YS      -0.556000
@<TRIPOS>BOND
     1     1     9 1   
     2     1    17 1   
     3     1    18 1   
     4     2     6 1   
     5     2     7 1   
     6     2    22 1   
     7     3     5 1   
     8     3     7 1   
     9     3    23 1   
    10     4     5 1   
    11     4     6 1   
    12     4    21 1   
    13     5    20 1   
    14     6    24 1   
    15     7    25 1   
    16     8    14 1   
    17     8    36 1   
    18     8    38 1   
    19     9    10 1   
    20     9    11 1   
    21     9    26 1   
    22    10    11 1   
    23    10    13 1   
    24    10    27 1   
    25    11    14 1   
    26    11    28 1   
    27    12    13 1   
    28    12    14 1   
    29    12    15 1   
    30    12    29 1   
    31    12    31 1   
    32    13    19 1   
    33    13    30 1   
    34    14    16 1   
    35    15    22 1   
    36    15    31 1   
    37    15    32 1   
    38    16    33 1   
    39    16    34 1   
    40    16    37 1   
    41    19    35 1   
@<TRIPOS>SUBSTRUCTURE
     1 6YS         1 TEMP              0 ****  ****    0 ROOT
