@<TRIPOS>MOLECULE
molecule
   38    40     1     0     0
SMALL
bcc


@<TRIPOS>ATOM
      1 C7           0.0000     0.0000     0.0000 c          1 6YS       0.909600
      2 C6           8.2920     1.0930     0.6440 ca         1 6YS       0.083900
      3 C1          10.0900    -0.4850     0.8380 ca         1 6YS      -0.136000
      4 C5          10.5440     1.8710     0.9280 ca         1 6YS       0.093900
      5 C4          10.9910     0.5580     0.9660 ca         1 6YS       0.073900
      6 C3           9.1960     2.1400     0.7730 ca         1 6YS      -0.143000
      7 C2           8.7430    -0.2210     0.6780 ca         1 6YS      -0.114000
      8 C8           4.3540    -2.4720     0.9820 c          1 6YS       0.879600
      9 C9           1.5060     0.0000     0.0000 cx         1 6YS      -0.143700
     10 C10          2.2130     0.0000     1.3580 cx         1 6YS      -0.123700
     11 C11          2.2120    -1.2680     0.4860 cx         1 6YS      -0.196700
     12 C12          4.3290    -0.1030     0.1490 c3         1 6YS      -0.132700
     13 C13          3.6730     0.4920     1.4210 c3         1 6YS       0.159100
     14 C14          3.6730    -1.5030     0.0490 c3         1 6YS       0.056200
     15 C15          5.8430    -0.2250     0.3270 c3         1 6YS      -0.195300
     16 N16          3.7230    -1.9960    -1.3340 nz         1 6YS      -0.782600
     17 O17         -0.6710     1.0860    -0.4150 o          1 6YS      -0.821800
     18 O19         -0.6040    -0.9780     0.3700 o          1 6YS      -0.821800
     19 O21          3.7230     1.9190     1.3870 oh         1 6YS      -0.598800
     20 F22         12.3070     0.2980     1.1230 f          1 6YS      -0.141900
     21 F23         11.4250     2.8880     1.0530 f          1 6YS      -0.139900
     22 S24          6.5740     1.4310     0.4460 ss         1 6YS      -0.372000
     23 H1          10.4410    -1.5090     0.8660 ha         1 6YS       0.152000
     24 H2           8.8470     3.1650     0.7450 ha         1 6YS       0.154000
     25 H3           8.0380    -1.0380     0.5770 ha         1 6YS       0.193000
     26 H4           2.0290     0.5370    -0.7820 hc         1 6YS       0.048700
     27 H5           1.6250    -0.1150     2.2610 hc         1 6YS       0.120700
     28 H6           1.6250    -2.0700     0.9180 hc         1 6YS       0.150700
     29 H7           4.0850     0.4950    -0.7210 hc         1 6YS       0.061700
     30 H8           4.1620     0.1100     2.3090 h1         1 6YS       0.079700
     31 H9           5.3180     0.2120    -0.5140 h1         1 6YS       0.230700
     32 H10          5.4920    -0.2810     1.3510 h1         1 6YS       0.230700
     33 H11          3.1630    -1.4070    -1.9180 hn         1 6YS       0.442133
     34 H12          4.6700    -1.9840    -1.6580 hn         1 6YS       0.442133
     35 H16          3.6660     2.2560     2.2660 ho         1 6YS       0.416000
     36 O20          5.3990    -3.1950     0.5510 o          1 6YS      -0.778800
     37 H163         3.3710    -2.9320    -1.3670 hn         1 6YS       0.442133
     38 O18          3.9580    -2.5970     2.1160 o          1 6YS      -0.778800
@<TRIPOS>BOND
     1    18     1 1
     2     1    17 1
     3     1     9 1
     4    20     5 1
     5     3     5 ar
     6     3     7 ar
     7     9    11 1
     8     9    10 1
     9     5     4 ar
    10     7     2 ar
    11    16    14 1
    12    11    10 1
    13    11    14 1
    14    19    13 1
    15    10    13 1
    16    14    12 1
    17    14     8 1
    18     4    21 1
    19     4     6 ar
    20     2     6 ar
    21     2    22 1
    22    12    13 1
    23    12    15 1
    24    22    15 1
    25     8    38 1
    26     8    36 1
    27     3    23 1
    28     6    24 1
    29     7    25 1
    30     9    26 1
    31    10    27 1
    32    11    28 1
    33    12    29 1
    34    13    30 1
    35    15    31 1
    36    15    32 1
    37    16    33 1
    38    16    34 1
    39    19    35 1
    40    37    16 1
@<TRIPOS>SUBSTRUCTURE
     1 6YS         1 TEMP              0 ****  ****    0 ROOT
