@<TRIPOS>MOLECULE
6YT
   37    38     1     0     0
SMALL
bcc


@<TRIPOS>ATOM
      1 CAK          0.0000     0.0000     0.0000 ca         1 6YT      -0.204300
      2 CAF          1.3860     0.0000     0.0000 ca         1 6YT      -0.075000
      3 CAE          2.0460     0.0000     1.2210 ca         1 6YT      -0.237300
      4 CAH          1.3040    -0.0000     2.3870 ca         1 6YT       0.400200
      5 NAN         -0.0140    -0.0010     2.3480 nb         1 6YT      -0.558000
      6 CAU         -0.6750    -0.0010     1.2070 ca         1 6YT       0.409600
      7 CAL         -2.1810    -0.0020     1.2170 c3         1 6YT       0.025400
      8 SAQ         -2.7850    -1.7120     1.2220 ss         1 6YT      -0.438200
      9 CB          -4.5870    -1.5090     1.2350 c3         1 6YT       0.115700
     10 CA          -5.2570    -2.8850     1.2400 c3         1 6YT      -0.083300
     11 C           -6.7530    -2.7150     1.2510 c          1 6YT       0.975600
     12 OXT         -7.3480    -2.0630     2.2620 o          1 6YT      -0.880800
     13 O           -7.4190    -3.1670     0.3500 o          1 6YT      -0.880800
     14 N           -4.8570    -3.6260     0.0410 ns         1 6YT      -0.112900
     15 CAS         -4.8800    -4.9730     0.0420 c          1 6YT       0.474600
     16 OAB         -5.2310    -5.5740     1.0390 o          1 6YT      -0.643100
     17 CAV         -4.4780    -5.7210    -1.1680 ca         1 6YT       0.320800
     18 NAO         -4.0940    -5.0600    -2.2550 nb         1 6YT      -0.537000
     19 CAI         -3.7290    -5.6860    -3.3510 ca         1 6YT       0.356200
     20 CAG         -3.7290    -7.0720    -3.4170 ca         1 6YT      -0.196300
     21 CAJ         -4.1190    -7.8060    -2.3110 ca         1 6YT      -0.175000
     22 CAT         -4.4970    -7.1190    -1.1590 ca         1 6YT       0.082800
     23 OAD         -4.8830    -7.7970    -0.0490 oh         1 6YT      -0.437100
     24 HAK         -0.5480     0.0000    -0.9340 ha         1 6YT       0.120000
     25 HAF          1.9410     0.0010    -0.9300 ha         1 6YT       0.102000
     26 HAE          3.1280     0.0000     1.2590 ha         1 6YT       0.105000
     27 HAH          1.8110    -0.0010     3.3440 h4         1 6YT      -0.025900
     28 HAL1        -2.5360     0.5080     2.1050 h1         1 6YT       0.041700
     29 HAL2        -2.5490     0.5080     0.3360 h1         1 6YT       0.041700
     30 HB1C        -4.8950    -0.9610     0.3530 h1         1 6YT       0.048200
     31 HB2C        -4.8820    -0.9610     2.1220 h1         1 6YT       0.048200
     32 HA          -4.9490    -3.4330     2.1220 h1         1 6YT       0.069700
     33 H           -4.5820    -3.1310    -0.7850 hn         1 6YT       0.175500
     34 HAI         -3.4230    -5.1110    -4.2170 h4         1 6YT      -0.026900
     35 HAG         -3.4270    -7.5750    -4.3280 ha         1 6YT       0.099000
     36 HAJ         -4.1250    -8.8890    -2.3390 ha         1 6YT       0.108000
     37 HAD         -5.5450    -8.4270    -0.2790 ho         1 6YT       0.392000
@<TRIPOS>BOND
     1     1     2 ar  
     2     1     6 ar  
     3     1    24 1   
     4     2     3 ar  
     5     2    25 1   
     6     3     4 ar  
     7     3    26 1   
     8     4     5 ar  
     9     4    27 1   
    10     5     6 ar  
    11     6     7 1   
    12     7     8 1   
    13     7    28 1   
    14     7    29 1   
    15     8     9 1   
    16     9    10 1   
    17     9    30 1   
    18     9    31 1   
    19    10    11 1   
    20    10    14 1   
    21    10    32 1   
    22    11    12 1   
    23    11    13 1   
    24    14    15 1   
    25    14    33 1   
    26    15    16 2   
    27    15    17 1   
    28    17    18 ar  
    29    17    22 ar  
    30    18    19 ar  
    31    19    20 ar  
    32    19    34 1   
    33    20    21 ar  
    34    20    35 1   
    35    21    22 ar  
    36    21    36 1   
    37    22    23 1   
    38    23    37 1   
@<TRIPOS>SUBSTRUCTURE
     1 6YT         1 TEMP              0 ****  ****    0 ROOT
