@<TRIPOS>MOLECULE
molecule
   37    38     1     0     0
SMALL
bcc


@<TRIPOS>ATOM
      1 CAK          0.0000     0.0000     0.0000 ca         1 6YT      -0.238300
      2 CAF          1.3860     0.0000     0.0000 ca         1 6YT      -0.098000
      3 CAE          2.0460     0.0000     1.2210 ca         1 6YT      -0.269300
      4 CAH          1.3040    -0.0000     2.3870 ca         1 6YT       0.420200
      5 NAN         -0.0140    -0.0010     2.3480 nb         1 6YT      -0.679000
      6 CAU         -0.6750    -0.0010     1.2070 ca         1 6YT       0.457600
      7 CAL         -2.1810    -0.0020     1.2170 c3         1 6YT      -0.041600
      8 SAQ         -2.7850    -1.7120     1.2220 ss         1 6YT      -0.370200
      9 CB          -4.5870    -1.5090     1.2350 c3         1 6YT       0.037700
     10 CA          -5.2570    -2.8850     1.2400 c3         1 6YT       0.021700
     11 C           -6.7530    -2.7150     1.2510 c          1 6YT       0.887600
     12 OXT         -7.3480    -2.0630     2.2620 o          1 6YT      -0.829800
     13 O           -7.4190    -3.1670     0.3500 o          1 6YT      -0.829800
     14 N           -4.8570    -3.6260     0.0410 ns         1 6YT      -0.526900
     15 CAS         -4.8800    -4.9730     0.0420 c          1 6YT       0.572600
     16 OAB         -5.2310    -5.5740     1.0390 o          1 6YT      -0.592100
     17 CAV         -4.4780    -5.7210    -1.1680 ca         1 6YT       0.385800
     18 NAO         -4.0940    -5.0600    -2.2550 nb         1 6YT      -0.655000
     19 CAI         -3.7290    -5.6860    -3.3510 ca         1 6YT       0.384200
     20 CAG         -3.7290    -7.0720    -3.4170 ca         1 6YT      -0.233300
     21 CAJ         -4.1190    -7.8060    -2.3110 ca         1 6YT      -0.179000
     22 CAT         -4.4970    -7.1190    -1.1590 ca         1 6YT       0.049800
     23 OAD         -4.8830    -7.7970    -0.0490 oh         1 6YT      -0.464100
     24 HAK         -0.5480     0.0000    -0.9340 ha         1 6YT       0.143000
     25 HAF          1.9410     0.0010    -0.9300 ha         1 6YT       0.129000
     26 HAE          3.1280     0.0000     1.2590 ha         1 6YT       0.127000
     27 HAH          1.8110    -0.0010     3.3440 h4         1 6YT       0.016100
     28 HAL1        -2.5360     0.5080     2.1050 h1         1 6YT       0.068200
     29 HAL2        -2.5490     0.5080     0.3360 h1         1 6YT       0.068200
     30 HB1C        -4.8950    -0.9610     0.3530 h1         1 6YT       0.071700
     31 HB2C        -4.8820    -0.9610     2.1220 h1         1 6YT       0.071700
     32 HA          -4.9490    -3.4330     2.1220 h1         1 6YT       0.088700
     33 H           -4.5820    -3.1310    -0.7850 hn         1 6YT       0.320500
     34 HAI         -3.4230    -5.1110    -4.2170 h4         1 6YT       0.015100
     35 HAG         -3.4270    -7.5750    -4.3280 ha         1 6YT       0.125000
     36 HAJ         -4.1250    -8.8890    -2.3390 ha         1 6YT       0.133000
     37 HAD         -5.5450    -8.4270    -0.2790 ho         1 6YT       0.413000
@<TRIPOS>BOND
     1     1     2 ar  
     2     1     6 ar  
     3     2     3 ar  
     4     3     4 ar  
     5     4     5 ar  
     6     5     6 ar  
     7     6     7 1   
     8     7     8 1   
     9     8     9 1   
    10     9    10 1   
    11    10    11 1   
    12    10    14 1   
    13    11    12 1   
    14    11    13 1   
    15    14    15 1   
    16    15    16 2   
    17    15    17 1   
    18    17    18 ar  
    19    17    22 ar  
    20    18    19 ar  
    21    19    20 ar  
    22    20    21 ar  
    23    21    22 ar  
    24    22    23 1   
    25     1    24 1   
    26     2    25 1   
    27     3    26 1   
    28     4    27 1   
    29     7    28 1   
    30     7    29 1   
    31     9    30 1   
    32     9    31 1   
    33    10    32 1   
    34    14    33 1   
    35    19    34 1   
    36    20    35 1   
    37    21    36 1   
    38    23    37 1   
@<TRIPOS>SUBSTRUCTURE
     1 6YT         1 TEMP              0 ****  ****    0 ROOT
