@<TRIPOS>MOLECULE
molecule
   25    24     1     0     0
SMALL
bcc


@<TRIPOS>ATOM
      1 O01         -6.9980     0.7600     0.9850 o          1 6YW      -0.993167
      2 P02         -6.2070     1.7330     0.1990 p5         1 6YW       1.370900
      3 O03         -6.1670     3.1430     0.9750 o          1 6YW      -0.993167
      4 O04         -4.7070     1.1790     0.0150 os         1 6YW      -0.744300
      5 P05         -4.0830    -0.2520    -0.3770 p5         1 6YW       1.556300
      6 O06         -4.1560    -0.4510    -1.9730 o          1 6YW      -0.914000
      7 O07         -2.5470    -0.3180     0.1020 os         1 6YW      -0.749300
      8 P08         -1.4850    -1.5130     0.2940 p5         1 6YW       1.562300
      9 O09         -1.5430    -2.4170    -0.8770 o          1 6YW      -0.907000
     10 O10         -0.0030    -0.8990     0.4240 os         1 6YW      -0.749800
     11 P11          1.4780    -1.4990     0.2280 p5         1 6YW       1.562300
     12 O12          1.5230    -2.3050    -1.0120 o          1 6YW      -0.907000
     13 O13          2.5370    -0.2910     0.1210 os         1 6YW      -0.749300
     14 P14          4.0320    -0.1620    -0.4610 p5         1 6YW       1.556300
     15 O15          3.9730    -0.0080    -2.0630 o          1 6YW      -0.914000
     16 O16          4.7470     1.1310     0.1770 os         1 6YW      -0.744300
     17 P17          6.2730     1.6390     0.2600 p5         1 6YW       1.370900
     18 O18          6.6870     2.3260    -1.1360 o          1 6YW      -0.993167
     19 O19          6.4170     2.7130     1.4510 o          1 6YW      -0.993167
     20 O20          7.1620     0.4860     0.5250 o          1 6YW      -0.993167
     21 O21          4.8040    -1.3760    -0.1110 o          1 6YW      -0.914000
     22 O22          1.8510    -2.4300     1.4870 o          1 6YW      -0.907000
     23 O23         -1.8430    -2.3410     1.6280 o          1 6YW      -0.907000
     24 O24         -4.8540    -1.3260     0.2890 o          1 6YW      -0.914000
     25 O25         -6.8860     1.9340    -1.2460 o          1 6YW      -0.993167
@<TRIPOS>BOND
     1    20    17 1
     2    17    18 1
     3    17    16 1
     4    17    19 1
     5    16    14 1
     6    21    14 1
     7    14    15 1
     8    14    13 1
     9    24     5 1
    10    12    11 1
    11     1     2 1
    12    13    11 1
    13     6     5 1
    14    11    10 1
    15    11    22 1
    16    25     2 1
    17     5     4 1
    18     5     7 1
    19    10     8 1
    20     2     4 1
    21     2     3 1
    22     7     8 1
    23     8     9 1
    24     8    23 1
@<TRIPOS>SUBSTRUCTURE
     1 6YW         1 TEMP              0 ****  ****    0 ROOT
