@<TRIPOS>MOLECULE
6Z0
   42    44     1     0     0
SMALL
bcc


@<TRIPOS>ATOM
      1 C2           0.0000     0.0000     0.0000 ca         1 6Z0      -0.055000
      2 C3           1.3830     0.0000     0.0000 ca         1 6Z0      -0.151300
      3 C4           2.0630     0.0000     1.2170 ca         1 6Z0       0.322800
      4 N5           1.4020     0.0000     2.3670 nb         1 6Z0      -0.548000
      5 C6           0.0880     0.0000     2.4100 ca         1 6Z0       0.422200
      6 N9           4.2120     0.0000     2.3970 ns         1 6Z0      -0.029100
      7 C15          8.3680    -0.2910     2.4290 ca         1 6Z0       0.119900
      8 C1          -0.6640     0.0010     1.2310 ca         1 6Z0      -0.061300
      9 C7           3.5460     0.0000     1.2260 c          1 6Z0       0.493600
     10 O8           4.1600    -0.0000     0.1770 o          1 6Z0      -0.628100
     11 C10         -2.0960     0.0010     1.2850 cg         1 6Z0       0.219800
     12 N11         -3.2310    -0.0180     1.3250 n1         1 6Z0      -0.351800
     13 C12          5.6070    -0.0980     2.4080 ca         1 6Z0      -0.100400
     14 C13          6.3540     0.5030     1.4030 ca         1 6Z0      -0.126000
     15 C14          7.7310     0.4050     1.4150 ca         1 6Z0      -0.114000
     16 C16          7.6250    -0.8910     3.4330 ca         1 6Z0      -0.165300
     17 C17          6.2470    -0.7950     3.4240 ca         1 6Z0      -0.097000
     18 C20          9.2660    -0.7110     5.2880 c3         1 6Z0      -0.014100
     19 O22          7.2310    -4.2660     4.3640 os         1 6Z0      -0.418400
     20 C23          6.5710    -3.2770     5.0210 c2         1 6Z0       0.647500
     21 N28          7.3220    -2.2020     5.4650 nu         1 6Z0      -0.514200
     22 C25          9.1170    -2.8170     3.9370 c3         1 6Z0       0.343600
     23 C60          8.1380    -3.8340     3.3420 c3         1 6Z0       0.172400
     24 F26          9.8750    -3.4280     4.9410 f          1 6Z0      -0.205300
     25 F27          9.9670    -2.3410     2.9320 f          1 6Z0      -0.205300
     26 C5           8.3210    -1.6480     4.5330 c3         1 6Z0       0.157500
     27 N24          5.2880    -3.3370     5.2240 n2         1 6Z0      -0.744100
     28 H2          -0.5420    -0.0000    -0.9380 ha         1 6Z0       0.125000
     29 H3           1.9250    -0.0000    -0.9380 ha         1 6Z0       0.142000
     30 H6          -0.4220     0.0010     3.3660 h4         1 6Z0      -0.004900
     31 H9           4.0010     0.6870     3.0940 hn         1 6Z0       0.186500
     32 H14          8.3140     0.8730     0.6310 ha         1 6Z0       0.126000
     33 H13          5.9730     0.5340     0.3900 ha         1 6Z0       0.175000
     34 H17          5.8040    -1.7000     3.8220 ha         1 6Z0       0.155000
     35 H201        10.1420    -0.5170     4.6820 hc         1 6Z0       0.031033
     36 H202         9.5670    -1.1750     6.2200 hc         1 6Z0       0.031033
     37 H203         8.7580     0.2230     5.4980 hc         1 6Z0       0.031033
     38 H601         8.6690    -4.6970     2.9600 h1         1 6Z0       0.042700
     39 H602         7.5680    -3.3830     2.5380 h1         1 6Z0       0.042700
     40 H24          4.7650    -4.1240     4.8930 hn         1 6Z0       0.343400
     41 H28          7.1230    -1.6990     6.3070 hn         1 6Z0       0.326800
     42 F18          9.7150    -0.3910     2.4360 f          1 6Z0      -0.121900
@<TRIPOS>BOND
     1     1     2 ar  
     2     1     8 ar  
     3     1    28 1   
     4     2     3 ar  
     5     2    29 1   
     6     3     4 ar  
     7     3     9 1   
     8     4     5 ar  
     9     5     8 ar  
    10     5    30 1   
    11     6     9 1   
    12     6    13 1   
    13     6    31 1   
    14     7    15 ar  
    15     7    16 ar  
    16     7    42 1   
    17     8    11 1   
    18     9    10 2   
    19    11    12 3   
    20    13    14 ar  
    21    13    17 ar  
    22    14    15 ar  
    23    14    33 1   
    24    15    32 1   
    25    16    17 ar  
    26    16    26 1   
    27    17    34 1   
    28    18    26 1   
    29    18    35 1   
    30    18    36 1   
    31    18    37 1   
    32    19    20 1   
    33    19    23 1   
    34    20    21 1   
    35    20    27 2   
    36    21    26 1   
    37    21    41 1   
    38    22    23 1   
    39    22    24 1   
    40    22    25 1   
    41    22    26 1   
    42    23    38 1   
    43    23    39 1   
    44    27    40 1   
@<TRIPOS>SUBSTRUCTURE
     1 6Z0         1 TEMP              0 ****  ****    0 ROOT
