@<TRIPOS>MOLECULE
molecule
   42    44     1     0     0
SMALL
bcc


@<TRIPOS>ATOM
      1 C2           0.0000     0.0000     0.0000 ca         1 6Z0      -0.087000
      2 C3           1.3830     0.0000     0.0000 ca         1 6Z0      -0.167300
      3 C4           2.0630     0.0000     1.2170 ca         1 6Z0       0.396800
      4 N5           1.4020     0.0000     2.3670 nb         1 6Z0      -0.700000
      5 C6           0.0880     0.0000     2.4100 ca         1 6Z0       0.432200
      6 N9           4.2120     0.0000     2.3970 ns         1 6Z0      -0.455100
      7 C15          8.3680    -0.2910     2.4290 ca         1 6Z0       0.134900
      8 C1          -0.6640     0.0010     1.2310 ca         1 6Z0      -0.120300
      9 C7           3.5460     0.0000     1.2260 c          1 6Z0       0.573600
     10 O8           4.1600    -0.0000     0.1770 o          1 6Z0      -0.586100
     11 C10         -2.0960     0.0010     1.2850 cg         1 6Z0       0.228800
     12 N11         -3.2300    -0.0180     1.3280 n1         1 6Z0      -0.337800
     13 C12          5.6070    -0.0980     2.4080 ca         1 6Z0       0.051600
     14 C13          6.3540     0.5030     1.4030 ca         1 6Z0      -0.086000
     15 C14          7.7310     0.4050     1.4150 ca         1 6Z0      -0.157000
     16 C16          7.6250    -0.8910     3.4330 ca         1 6Z0      -0.116300
     17 C17          6.2470    -0.7950     3.4240 ca         1 6Z0      -0.107000
     18 C20          9.2660    -0.7110     5.2880 c3         1 6Z0      -0.115100
     19 O22          7.2310    -4.2660     4.3640 os         1 6Z0      -0.421400
     20 C23          6.5710    -3.2770     5.0210 c2         1 6Z0       0.746500
     21 N28          7.3220    -2.2020     5.4650 nu         1 6Z0      -0.878200
     22 C25          9.1170    -2.8170     3.9370 c3         1 6Z0       0.469600
     23 C60          8.1380    -3.8340     3.3420 c3         1 6Z0      -0.130600
     24 F26          9.8750    -3.4280     4.9410 f          1 6Z0      -0.214800
     25 F27          9.9670    -2.3410     2.9320 f          1 6Z0      -0.214800
     26 C5           8.3210    -1.6480     4.5330 c3         1 6Z0       0.196500
     27 N24          5.2880    -3.3370     5.2240 n2         1 6Z0      -0.709100
     28 H2          -0.8070     0.3650    -0.6230 ha         1 6Z0       0.170000
     29 H3           1.6890    -0.0510    -1.0380 ha         1 6Z0       0.173000
     30 H6          -0.0200     0.0570     3.4870 h4         1 6Z0       0.057100
     31 H9           3.7040     0.0860     3.2560 hn         1 6Z0       0.347500
     32 H14          8.3130     0.8370     0.6090 ha         1 6Z0       0.153000
     33 H13          5.9380     1.1680     0.6560 ha         1 6Z0       0.165000
     34 H17          5.7850    -1.4190     4.1790 ha         1 6Z0       0.162000
     35 H201        10.2000    -0.8710     4.7640 hc         1 6Z0       0.063033
     36 H202         9.0550     0.1810     5.8660 hc         1 6Z0       0.063033
     37 H203         9.6890    -1.2950     6.0970 hc         1 6Z0       0.063033
     38 H601         8.9790    -3.8600     4.0230 h1         1 6Z0       0.135700
     39 H602         8.1370    -4.7350     2.7410 h1         1 6Z0       0.135700
     40 H24          5.1670    -2.4540     5.6800 hn         1 6Z0       0.386400
     41 H28          8.1030    -2.1140     6.0840 hn         1 6Z0       0.431800
     42 F18          9.7150    -0.3910     2.4360 f          1 6Z0      -0.134900
@<TRIPOS>BOND
     1     1     2 ar  
     2     1     8 ar  
     3     2     3 ar  
     4     3     4 ar  
     5     3     9 1   
     6     4     5 ar  
     7     5     8 ar  
     8     6     9 1   
     9     6    13 1   
    10     7    15 ar  
    11     7    16 ar  
    12     7    42 1   
    13     8    11 1   
    14     9    10 2   
    15    11    12 3   
    16    13    14 ar  
    17    13    17 ar  
    18    14    15 ar  
    19    16    17 ar  
    20    16    26 1   
    21    18    26 1   
    22    19    20 1   
    23    19    23 1   
    24    20    27 2   
    25    20    21 1   
    26    22    24 1   
    27    22    23 1   
    28    22    25 1   
    29    22    26 1   
    30    21    26 1   
    31     1    28 1   
    32     2    29 1   
    33     5    30 1   
    34     6    31 1   
    35    15    32 1   
    36    14    33 1   
    37    17    34 1   
    38    18    35 1   
    39    18    36 1   
    40    18    37 1   
    41    23    38 1   
    42    23    39 1   
    43    27    40 1   
    44    21    41 1   
@<TRIPOS>SUBSTRUCTURE
     1 6Z0         1 TEMP              0 ****  ****    0 ROOT
