@<TRIPOS>MOLECULE
6Z2
   48    51     1     0     0
SMALL
bcc


@<TRIPOS>ATOM
      1 C4           0.0000     0.0000     0.0000 ca         1 6Z2       0.546200
      2 C14         -2.0870     0.0160     3.1110 c          1 6Z2       0.630500
      3 C6           4.0510     0.1120    -0.1240 ca         1 6Z2      -0.122700
      4 C11          3.4950     0.8530    -1.1640 ca         1 6Z2      -0.079000
      5 C7           5.2780    -0.5080    -0.3200 ca         1 6Z2       0.373200
      6 C13         -2.1200     0.0120     1.5970 c3         1 6Z2      -0.069700
      7 N1           1.3930    -0.0000     2.3170 nb         1 6Z2      -0.696000
      8 N            1.3270     0.0000     0.0000 nb         1 6Z2      -0.712000
      9 C            2.0020     0.0000     1.1400 ca         1 6Z2       0.724900
     10 C2           0.0640     0.0050     2.3940 ca         1 6Z2       0.449200
     11 C3          -0.6640     0.0050     1.2040 ca         1 6Z2      -0.457900
     12 N5           3.3860    -0.0000     1.1010 nu         1 6Z2      -0.271300
     13 N8           5.9070    -0.4040    -1.4730 nb         1 6Z2      -0.563000
     14 C9           5.4050     0.2850    -2.4790 ca         1 6Z2       0.383200
     15 C10          4.1910     0.9360    -2.3590 ca         1 6Z2      -0.200300
     16 N12         -0.7950     0.0070     3.4800 n          1 6Z2      -0.054300
     17 C15         -2.8120     1.2720     1.0720 c3         1 6Z2       0.025900
     18 C16         -2.8220    -1.2440     1.0780 c3         1 6Z2       0.025900
     19 O           -3.0470     0.0220     3.8530 o          1 6Z2      -0.625500
     20 C17         -0.3450     0.0020     4.8740 c3         1 6Z2       0.076000
     21 C18          0.4430     1.2570     5.1520 ca         1 6Z2      -0.115300
     22 C19          0.1060     2.4390     4.5190 ca         1 6Z2      -0.069000
     23 C20          0.8260     3.5890     4.7740 ca         1 6Z2      -0.127500
     24 C21          1.8870     3.5590     5.6630 ca         1 6Z2       0.105900
     25 C22          2.2240     2.3750     6.2970 ca         1 6Z2      -0.127500
     26 C23          1.4980     1.2260     6.0440 ca         1 6Z2      -0.069000
     27 C24          0.5420    -1.2210     5.1190 c3         1 6Z2      -0.024100
     28 F            2.5920     4.6840     5.9120 f          1 6Z2      -0.127900
     29 H1          -0.5510     0.0000    -0.9330 h4         1 6Z2      -0.014900
     30 H2           2.5400     1.3510    -1.0430 ha         1 6Z2       0.141000
     31 H3           5.7210    -1.0850     0.4820 h4         1 6Z2      -0.018900
     32 H4           3.9100    -0.0340     1.9530 hn         1 6Z2       0.295800
     33 H5           5.9540     0.3460    -3.4110 h4         1 6Z2      -0.019900
     34 H6           3.7880     1.5020    -3.1900 ha         1 6Z2       0.112000
     35 H7          -3.7990     1.3520     1.5120 hc         1 6Z2       0.013033
     36 H8          -2.2260     2.1430     1.3390 hc         1 6Z2       0.013033
     37 H9          -2.9010     1.2120    -0.0060 hc         1 6Z2       0.013033
     38 H10         -3.8540    -1.2430     1.4070 hc         1 6Z2       0.013033
     39 H11         -2.3210    -2.1230     1.4630 hc         1 6Z2       0.013033
     40 H12         -2.7890    -1.2550    -0.0050 hc         1 6Z2       0.013033
     41 H13         -1.2050    -0.0380     5.5310 h1         1 6Z2       0.068700
     42 H14         -0.7240     2.4630     3.8230 ha         1 6Z2       0.114000
     43 H15          0.5620     4.5150     4.2780 ha         1 6Z2       0.120000
     44 H16          3.0520     2.3500     6.9940 ha         1 6Z2       0.120000
     45 H17          1.7620     0.3000     6.5400 ha         1 6Z2       0.114000
     46 H18          0.5780    -1.4340     6.1810 hc         1 6Z2       0.021033
     47 H19          1.5430    -1.0210     4.7570 hc         1 6Z2       0.021033
     48 H20          0.1320    -2.0760     4.5940 hc         1 6Z2       0.021033
@<TRIPOS>BOND
     1     1     8 ar  
     2     1    11 ar  
     3     1    29 1   
     4     2     6 1   
     5     2    16 1   
     6     2    19 2   
     7     3     4 ar  
     8     3     5 ar  
     9     3    12 1   
    10     4    15 ar  
    11     4    30 1   
    12     5    13 ar  
    13     5    31 1   
    14     6    11 1   
    15     6    17 1   
    16     6    18 1   
    17     7     9 ar  
    18     7    10 ar  
    19     8     9 ar  
    20     9    12 1   
    21    10    11 ar  
    22    10    16 1   
    23    12    32 1   
    24    13    14 ar  
    25    14    15 ar  
    26    14    33 1   
    27    15    34 1   
    28    16    20 1   
    29    17    35 1   
    30    17    36 1   
    31    17    37 1   
    32    18    38 1   
    33    18    39 1   
    34    18    40 1   
    35    20    21 1   
    36    20    27 1   
    37    20    41 1   
    38    21    22 ar  
    39    21    26 ar  
    40    22    23 ar  
    41    22    42 1   
    42    23    24 ar  
    43    23    43 1   
    44    24    25 ar  
    45    24    28 1   
    46    25    26 ar  
    47    25    44 1   
    48    26    45 1   
    49    27    46 1   
    50    27    47 1   
    51    27    48 1   
@<TRIPOS>SUBSTRUCTURE
     1 6Z2         1 TEMP              0 ****  ****    0 ROOT
