@<TRIPOS>MOLECULE
molecule
   48    51     1     0     0
SMALL
bcc


@<TRIPOS>ATOM
      1 C4           0.0000     0.0000     0.0000 ca         1 6Z2       0.539200
      2 C14         -2.0870     0.0160     3.1110 c          1 6Z2       0.721500
      3 C6           4.0510     0.1120    -0.1240 ca         1 6Z2       0.035300
      4 C11          3.4950     0.8530    -1.1640 ca         1 6Z2      -0.095000
      5 C7           5.2780    -0.5080    -0.3200 ca         1 6Z2       0.387200
      6 C13         -2.1200     0.0120     1.5970 c3         1 6Z2      -0.086700
      7 N1           1.3930    -0.0000     2.3170 nb         1 6Z2      -0.817000
      8 N            1.3270     0.0000     0.0000 nb         1 6Z2      -0.805000
      9 C            2.0020     0.0000     1.1400 ca         1 6Z2       0.965900
     10 C2           0.0640     0.0050     2.3940 ca         1 6Z2       0.628200
     11 C3          -0.6640     0.0050     1.2040 ca         1 6Z2      -0.441900
     12 N5           3.3860    -0.0000     1.1010 nu         1 6Z2      -0.746300
     13 N8           5.9070    -0.4040    -1.4730 nb         1 6Z2      -0.671000
     14 C9           5.4050     0.2850    -2.4790 ca         1 6Z2       0.395200
     15 C10          4.1910     0.9360    -2.3590 ca         1 6Z2      -0.237300
     16 N12         -0.7950     0.0070     3.4800 n          1 6Z2      -0.442300
     17 C15         -2.8120     1.2720     1.0720 c3         1 6Z2      -0.069100
     18 C16         -2.8220    -1.2440     1.0780 c3         1 6Z2      -0.069100
     19 O           -3.0470     0.0220     3.8530 o          1 6Z2      -0.586500
     20 C17         -0.3450     0.0020     4.8740 c3         1 6Z2       0.162000
     21 C18          0.4430     1.2570     5.1520 ca         1 6Z2      -0.111300
     22 C19          0.1060     2.4390     4.5190 ca         1 6Z2      -0.088500
     23 C20          0.8260     3.5890     4.7740 ca         1 6Z2      -0.166000
     24 C21          1.8870     3.5590     5.6630 ca         1 6Z2       0.135900
     25 C22          2.2240     2.3750     6.2970 ca         1 6Z2      -0.166000
     26 C23          1.4980     1.2260     6.0440 ca         1 6Z2      -0.088500
     27 C24          0.5420    -1.2210     5.1190 c3         1 6Z2      -0.109100
     28 F            2.5920     4.6840     5.9120 f          1 6Z2      -0.140900
     29 H1          -0.5510     0.0000    -0.9330 h4         1 6Z2       0.034100
     30 H2           2.5400     1.3510    -1.0430 ha         1 6Z2       0.166000
     31 H3           5.7210    -1.0850     0.4820 h4         1 6Z2       0.022100
     32 H4           3.9100    -0.0340     1.9530 hn         1 6Z2       0.470800
     33 H5           5.9540     0.3460    -3.4110 h4         1 6Z2       0.023100
     34 H6           3.7880     1.5020    -3.1900 ha         1 6Z2       0.140000
     35 H7          -3.7990     1.3520     1.5120 hc         1 6Z2       0.047367
     36 H8          -2.2260     2.1430     1.3390 hc         1 6Z2       0.047367
     37 H9          -2.9010     1.2120    -0.0060 hc         1 6Z2       0.047367
     38 H10         -3.8540    -1.2430     1.4070 hc         1 6Z2       0.047367
     39 H11         -2.3210    -2.1230     1.4630 hc         1 6Z2       0.047367
     40 H12         -2.7890    -1.2550    -0.0050 hc         1 6Z2       0.047367
     41 H13         -1.2050    -0.0380     5.5310 h1         1 6Z2       0.097700
     42 H14         -0.7240     2.4630     3.8230 ha         1 6Z2       0.139000
     43 H15          0.5620     4.5150     4.2780 ha         1 6Z2       0.146000
     44 H16          3.0520     2.3500     6.9940 ha         1 6Z2       0.146000
     45 H17          1.7620     0.3000     6.5400 ha         1 6Z2       0.139000
     46 H18          0.5780    -1.4340     6.1810 hc         1 6Z2       0.052367
     47 H19          1.5430    -1.0210     4.7570 hc         1 6Z2       0.052367
     48 H20          0.1320    -2.0760     4.5940 hc         1 6Z2       0.052367
@<TRIPOS>BOND
     1    28    24 1
     2    25    24 ar
     3    25    26 ar
     4    24    23 ar
     5    26    21 ar
     6    15    14 ar
     7    15     4 ar
     8    14    13 ar
     9    23    22 ar
    10    21    22 ar
    11    21    20 1
    12    27    20 1
    13    13     5 ar
    14     4     3 ar
    15    20    16 1
    16     5     3 ar
    17     3    12 1
    18    16    10 1
    19    16     2 1
    20    19     2 2
    21     7    10 ar
    22     7     9 ar
    23    10    11 ar
    24     2     6 1
    25    12     9 1
    26     9     8 ar
    27    11     6 1
    28    11     1 ar
    29     6    17 1
    30     6    18 1
    31     8     1 ar
    32     1    29 1
    33     4    30 1
    34     5    31 1
    35    12    32 1
    36    14    33 1
    37    15    34 1
    38    17    35 1
    39    17    36 1
    40    17    37 1
    41    18    38 1
    42    18    39 1
    43    18    40 1
    44    20    41 1
    45    22    42 1
    46    23    43 1
    47    25    44 1
    48    26    45 1
    49    27    46 1
    50    27    47 1
    51    27    48 1
@<TRIPOS>SUBSTRUCTURE
     1 6Z2         1 TEMP              0 ****  ****    0 ROOT
