@<TRIPOS>MOLECULE
molecule
   70    73     1     0     0
SMALL
bcc


@<TRIPOS>ATOM
      1 CAP          0.0000     0.0000     0.0000 cx         1 6Z3      -0.085900
      2 CAQ          1.5300     0.0000     0.0000 cx         1 6Z3      -0.085900
      3 CBK          0.7640     0.0000     1.3250 cx         1 6Z3      -0.168900
      4 CAJ          0.7630    -1.2460     2.1100 c1         1 6Z3       0.239700
      5 NAE          0.7510    -2.2160     2.7020 n1         1 6Z3      -0.353800
      6 CAZ          0.7650     1.2750     2.1300 c          1 6Z3       0.704100
      7 OAG          1.3570     2.2500     1.7180 o          1 6Z3      -0.612100
      8 NAW          0.1060     1.3300     3.3040 ns         1 6Z3      -0.555900
      9 CBH          0.1070     2.5690     4.0860 c3         1 6Z3       0.060700
     10 CBJ         -1.0090     3.4890     3.5850 c3         1 6Z3      -0.071000
     11 CAD         -2.3460     2.7460     3.6420 c3         1 6Z3      -0.090767
     12 CAB         -1.0800     4.7340     4.4700 c3         1 6Z3      -0.090767
     13 CAC         -0.7180     3.9050     2.1410 c3         1 6Z3      -0.090767
     14 CBA         -0.1230     2.2460     5.5400 c          1 6Z3       0.691100
     15 OAH         -0.7930     1.2840     5.8480 o          1 6Z3      -0.595100
     16 N            0.4160     3.0270     6.4970 n          1 6Z3      -0.469800
     17 CD2          1.3220     4.1670     6.2660 c3         1 6Z3       0.081000
     18 CG           2.1180     4.3150     7.5870 c3         1 6Z3       0.129100
     19 OD1          3.1960     3.3800     7.6420 oh         1 6Z3      -0.588800
     20 CB           1.0330     3.9760     8.6440 c3         1 6Z3      -0.107400
     21 CA           0.1940     2.8870     7.9430 c3         1 6Z3       0.049700
     22 C           -1.2660     3.0780     8.2660 c          1 6Z3       0.647100
     23 O           -2.0590     3.3010     7.3750 o          1 6Z3      -0.593100
     24 NAV         -1.6900     3.0030     9.5420 ns         1 6Z3      -0.584900
     25 CAR         -3.1090     3.1880     9.8550 c3         1 6Z3       0.160300
     26 CBC         -3.3170     3.0560    11.3420 ca         1 6Z3      -0.115300
     27 CAK         -3.2290     4.1730    12.1520 ca         1 6Z3      -0.112500
     28 CAM         -3.4190     4.0590    13.5130 ca         1 6Z3      -0.117000
     29 CAL         -3.6020     1.8180    11.8890 ca         1 6Z3      -0.112500
     30 CAN         -3.7950     1.6890    13.2490 ca         1 6Z3      -0.117000
     31 CBD         -3.7010     2.8110    14.0740 ca         1 6Z3       0.004000
     32 CBE         -3.9050     2.6810    15.5320 cc         1 6Z3      -0.104400
     33 SAX         -4.9150     3.7200    16.5350 ss         1 6Z3      -0.199300
     34 CAO         -4.5000     2.8040    17.9180 cd         1 6Z3       0.441300
     35 NAU         -3.6960     1.8450    17.5970 nc         1 6Z3      -0.675000
     36 CBB         -3.3580     1.7410    16.3310 cc         1 6Z3       0.382600
     37 CAA         -2.4290     0.6710    15.8190 c3         1 6Z3      -0.117400
     38 H1          -0.4670    -0.9390    -0.2710 hc         1 6Z3       0.094450
     39 H2          -0.4670     0.9390    -0.2710 hc         1 6Z3       0.094450
     40 H3           1.9970     0.9390    -0.2700 hc         1 6Z3       0.094450
     41 H4           1.9970    -0.9390    -0.2700 hc         1 6Z3       0.094450
     42 H5          -0.3440     0.5120     3.6640 hn         1 6Z3       0.343500
     43 H6           1.0620     3.0670     3.9730 h1         1 6Z3       0.082700
     44 H7          -2.5780     2.4990     4.6710 hc         1 6Z3       0.043478
     45 H8          -3.1270     3.3770     3.2370 hc         1 6Z3       0.043478
     46 H9          -2.2780     1.8360     3.0590 hc         1 6Z3       0.043478
     47 H10         -1.2330     4.4370     5.5010 hc         1 6Z3       0.043478
     48 H11         -1.9040     5.3590     4.1490 hc         1 6Z3       0.043478
     49 H12         -0.1530     5.2880     4.3890 hc         1 6Z3       0.043478
     50 H13         -1.3200     4.7680     1.8860 hc         1 6Z3       0.043478
     51 H14         -0.9580     3.0860     1.4740 hc         1 6Z3       0.043478
     52 H15          0.3320     4.1550     2.0420 hc         1 6Z3       0.043478
     53 H16          0.7510     5.0670     6.0690 h1         1 6Z3       0.065700
     54 H17          1.9950     3.9530     5.4450 h1         1 6Z3       0.065700
     55 H18          2.4710     5.3320     7.7120 h1         1 6Z3       0.050700
     56 H19          3.9910     3.8290     7.8780 ho         1 6Z3       0.406000
     57 H20          1.4880     3.5850     9.5460 hc         1 6Z3       0.066700
     58 H21          0.4250     4.8460     8.8590 hc         1 6Z3       0.066700
     59 H22          0.5210     1.9070     8.2700 h1         1 6Z3       0.088700
     60 H23         -1.0360     2.8190    10.2770 hn         1 6Z3       0.316500
     61 H24         -3.4240     4.1740     9.5330 h1         1 6Z3       0.061700
     62 H25         -3.6940     2.4360     9.3400 h1         1 6Z3       0.061700
     63 H26         -3.0100     5.1410    11.7170 ha         1 6Z3       0.139000
     64 H27         -3.3470     4.9350    14.1470 ha         1 6Z3       0.140500
     65 H28         -3.6740     0.9470    11.2480 ha         1 6Z3       0.139000
     66 H29         -4.0160     0.7180    13.6760 ha         1 6Z3       0.140500
     67 H30         -4.8590     3.0010    18.9210 h5         1 6Z3       0.062100
     68 H31         -3.0040    -0.0930    15.3100 hc         1 6Z3       0.053033
     69 H32         -1.8950     0.2270    16.6510 hc         1 6Z3       0.053033
     70 H33         -1.7190     1.1090    15.1270 hc         1 6Z3       0.053033
@<TRIPOS>BOND
     1    35    34 2
     2    35    36 1
     3    34    33 1
     4    37    36 1
     5    36    32 2
     6    33    32 1
     7    32    31 1
     8    31    30 ar
     9    31    28 ar
    10    30    29 ar
    11    28    27 ar
    12    29    26 ar
    13    27    26 ar
    14    26    25 1
    15    25    24 1
    16    24    22 1
    17    22    23 2
    18    22    21 1
    19    20    21 1
    20    20    18 1
    21    21    16 1
    22    18    19 1
    23    18    17 1
    24    16    17 1
    25    16    14 1
    26    15    14 2
    27    14     9 1
    28    13    10 1
    29     9    10 1
    30     9     8 1
    31    10    11 1
    32    10    12 1
    33     8     6 1
    34     6     7 2
    35     6     3 1
    36     5     4 3
    37     4     3 1
    38     3     2 1
    39     3     1 1
    40     2     1 1
    41     1    38 1
    42     1    39 1
    43     2    40 1
    44     2    41 1
    45     8    42 1
    46     9    43 1
    47    11    44 1
    48    11    45 1
    49    11    46 1
    50    12    47 1
    51    12    48 1
    52    12    49 1
    53    13    50 1
    54    13    51 1
    55    13    52 1
    56    17    53 1
    57    17    54 1
    58    18    55 1
    59    19    56 1
    60    20    57 1
    61    20    58 1
    62    21    59 1
    63    24    60 1
    64    25    61 1
    65    25    62 1
    66    27    63 1
    67    28    64 1
    68    29    65 1
    69    30    66 1
    70    34    67 1
    71    37    68 1
    72    37    69 1
    73    37    70 1
@<TRIPOS>SUBSTRUCTURE
     1 6Z3         1 TEMP              0 ****  ****    0 ROOT
