@<TRIPOS>MOLECULE
molecule
   65    69     1     0     0
SMALL
bcc


@<TRIPOS>ATOM
      1 C1           0.0000     0.0000     0.0000 ca         1 6Z4       0.998900
      2 C2           2.0050     0.0000     1.1430 ca         1 6Z4       0.722200
      3 C12          1.3060     0.0010     2.3480 ca         1 6Z4      -0.464600
      4 C13         -0.0830    -0.0050     2.3070 ca         1 6Z4       0.718600
      5 C14         -2.2270    -0.0100     3.3280 c3         1 6Z4       0.145400
      6 C22         -4.8150     1.2590     3.0910 cp         1 6Z4      -0.054000
      7 C23         -4.2200     1.7520     1.9320 ca         1 6Z4      -0.108500
      8 C25         -6.1770     1.1630     0.6840 ca         1 6Z4      -0.123000
      9 C26         -6.7760     0.6810     1.8340 ca         1 6Z4      -0.126500
     10 N1          -0.6750     0.0060    -1.2080 nv         1 6Z4      -0.997500
     11 N2           1.3240     0.0000     0.0000 nb         1 6Z4      -0.858000
     12 N3           3.3910     0.0060     1.1360 nh         1 6Z4      -0.690300
     13 CE1          3.9090     0.0050    -0.2390 c3         1 6Z4       0.168800
     14 CD1          5.4330    -0.1490    -0.2090 c3         1 6Z4      -0.068400
     15 CG           6.0390     0.9940     0.6020 c3         1 6Z4      -0.074000
     16 CD2          5.4400     1.0270     2.0050 c3         1 6Z4      -0.068400
     17 CE2          3.9160     1.1420     1.9030 c3         1 6Z4       0.168800
     18 C8           5.7950     2.3360    -0.1110 c3         1 6Z4       0.132800
     19 N            7.0370     2.5720    -0.8920 n7         1 6Z4      -0.755200
     20 CA           8.1280     2.1110     0.0030 c3         1 6Z4       0.046500
     21 C            9.3630     1.7830    -0.7960 c          1 6Z4       0.896600
     22 O            9.2770     1.5860    -1.9860 o          1 6Z4      -0.836800
     23 O2          10.5570     1.7090    -0.1890 o          1 6Z4      -0.836800
     24 CB           7.5670     0.8390     0.6780 c3         1 6Z4      -0.049400
     25 OH          -0.8030    -0.0050     3.4550 os         1 6Z4      -0.419100
     26 C15         -2.7290    -1.4550     3.2870 c3         1 6Z4       0.601900
     27 F1          -2.3640    -2.1100     4.4670 f          1 6Z4      -0.219633
     28 F2          -4.1230    -1.4600     3.1620 f          1 6Z4      -0.219633
     29 F3          -2.1610    -2.1150     2.1910 f          1 6Z4      -0.219633
     30 C16         -2.8390     0.7010     4.5060 ca         1 6Z4      -0.098300
     31 C17         -2.1640     0.7540     5.7100 ca         1 6Z4      -0.074000
     32 C18         -2.7250     1.4050     6.7930 ca         1 6Z4      -0.129000
     33 C19         -3.9640     2.0090     6.6780 ca         1 6Z4       0.040400
     34 Cl1         -4.6620     2.8250     8.0420 cl         1 6Z4      -0.111400
     35 C20         -4.6490     1.9630     5.4780 ca         1 6Z4      -0.119000
     36 C21         -4.0850     1.3120     4.3820 cp         1 6Z4      -0.001000
     37 C24         -4.9040     1.7010     0.7340 ca         1 6Z4      -0.126500
     38 C27         -6.1000     0.7230     3.0360 ca         1 6Z4      -0.108500
     39 N5          -0.6960     0.0010     1.1280 nb         1 6Z4      -0.908000
     40 H1           1.8210    -0.2210     3.2740 ha         1 6Z4       0.162000
     41 H2          -2.5090     0.4970     2.4140 h1         1 6Z4       0.126700
     42 H3          -3.2230     2.1740     1.9700 ha         1 6Z4       0.140000
     43 H4          -6.7100     1.1270    -0.2590 ha         1 6Z4       0.128000
     44 H5          -7.7750     0.2620     1.7880 ha         1 6Z4       0.132000
     45 H6          -1.6410    -0.2540    -1.2430 hn         1 6Z4       0.448300
     46 H7          -0.1870     0.2330    -2.0520 hn         1 6Z4       0.448300
     47 H8           3.6510     0.9390    -0.7210 h1         1 6Z4       0.046700
     48 H9           3.4740    -0.8230    -0.7860 h1         1 6Z4       0.046700
     49 H10          5.6910    -1.0950     0.2520 hc         1 6Z4       0.057950
     50 H11          5.8180    -0.1170    -1.2210 hc         1 6Z4       0.057950
     51 H12          5.8310     1.8830     2.5430 hc         1 6Z4       0.057950
     52 H13          5.6990     0.1150     2.5290 hc         1 6Z4       0.057950
     53 H14          3.4880     1.1330     2.8980 h1         1 6Z4       0.046700
     54 H15          3.6570     2.0660     1.4010 h1         1 6Z4       0.046700
     55 H16          5.6500     3.1270     0.6150 h1         1 6Z4       0.018200
     56 H17          4.9410     2.2610    -0.7740 h1         1 6Z4       0.018200
     57 H18          7.1400     3.5520    -1.0670 hn         1 6Z4       0.333800
     58 H20          8.3450     2.8660     0.7490 h1         1 6Z4       0.016700
     59 H22          7.8820    -0.0440     0.1360 hc         1 6Z4       0.050700
     60 H23          7.8870     0.7900     1.7120 hc         1 6Z4       0.050700
     61 H24         -1.1940     0.2820     5.8060 ha         1 6Z4       0.161000
     62 H25         -2.1910     1.4440     7.7350 ha         1 6Z4       0.148000
     63 H26         -5.6190     2.4360     5.3880 ha         1 6Z4       0.150000
     64 H27         -4.4410     2.0800    -0.1690 ha         1 6Z4       0.132000
     65 H28         -6.5680     0.3410     3.9350 ha         1 6Z4       0.140000
@<TRIPOS>BOND
     1    22    21 1   
     2     9     8 ar  
     3     9    38 ar  
     4    10     1 1   
     5     8    37 ar  
     6    21    20 1   
     7    21    23 1   
     8    16    17 1   
     9    16    15 1   
    10    24    20 1   
    11    24    15 1   
    12    20    19 1   
    13    38     6 ar  
    14    11     1 ar  
    15    11     2 ar  
    16     1    39 ar  
    17    17    12 1   
    18    15    14 1   
    19    15    18 1   
    20    37     7 ar  
    21    12     2 1   
    22    12    13 1   
    23     2     3 ar  
    24    14    13 1   
    25    39     4 ar  
    26    19    18 1   
    27     6     7 ar  
    28     6    36 1   
    29     3     4 ar  
    30     4    25 1   
    31    35    36 ar  
    32    35    33 ar  
    33    36    30 ar  
    34    34    33 1   
    35    33    32 ar  
    36    30     5 1   
    37    30    31 ar  
    38    25     5 1   
    39     5    26 1   
    40    32    31 ar  
    41    26    27 1   
    42    26    28 1   
    43    26    29 1   
    44     3    40 1   
    45     5    41 1   
    46     7    42 1   
    47     8    43 1   
    48     9    44 1   
    49    10    45 1   
    50    10    46 1   
    51    13    47 1   
    52    13    48 1   
    53    14    49 1   
    54    14    50 1   
    55    16    51 1   
    56    16    52 1   
    57    17    53 1   
    58    17    54 1   
    59    18    55 1   
    60    18    56 1   
    61    19    57 1   
    62    20    58 1   
    63    24    59 1   
    64    24    60 1   
    65    31    61 1   
    66    32    62 1   
    67    35    63 1   
    68    37    64 1   
    69    38    65 1   
@<TRIPOS>SUBSTRUCTURE
     1 6Z4         1 TEMP              0 ****  ****    0 ROOT
