@<TRIPOS>MOLECULE
6Z4
   65    69     1     0     0
SMALL
bcc


@<TRIPOS>ATOM
      1 C1           0.0000     0.0000     0.0000 ca         1 6Z4       0.770900
      2 C2           2.0050     0.0000     1.1430 ca         1 6Z4       0.608200
      3 C12          1.3060     0.0010     2.3480 ca         1 6Z4      -0.466600
      4 C13         -0.0830    -0.0050     2.3070 ca         1 6Z4       0.691600
      5 C14         -2.2270    -0.0100     3.3280 c3         1 6Z4       0.152400
      6 C22         -4.8150     1.2590     3.0910 cp         1 6Z4      -0.050000
      7 C23         -4.2200     1.7520     1.9320 ca         1 6Z4      -0.087500
      8 C25         -6.1770     1.1630     0.6840 ca         1 6Z4      -0.098000
      9 C26         -6.7760     0.6810     1.8340 ca         1 6Z4      -0.097000
     10 N1          -0.6750     0.0060    -1.2080 nv         1 6Z4      -0.508500
     11 N2           1.3240     0.0000     0.0000 nb         1 6Z4      -0.760000
     12 N3           3.3910     0.0060     1.1360 nh         1 6Z4      -0.447300
     13 CE1          3.9090     0.0050    -0.2390 c3         1 6Z4       0.132800
     14 CD1          5.4330    -0.1490    -0.2090 c3         1 6Z4      -0.017900
     15 CG           6.0390     0.9940     0.6020 c3         1 6Z4      -0.076000
     16 CD2          5.4400     1.0270     2.0050 c3         1 6Z4      -0.017900
     17 CE2          3.9160     1.1420     1.9030 c3         1 6Z4       0.132800
     18 C8           5.7950     2.3360    -0.1110 c3         1 6Z4       0.118800
     19 N            7.0370     2.5720    -0.8920 n7         1 6Z4      -0.538200
     20 CA           8.1280     2.1110     0.0030 c3         1 6Z4       0.011500
     21 C            9.3630     1.7830    -0.7960 c          1 6Z4       0.979600
     22 O            9.2770     1.5860    -1.9860 o          1 6Z4      -0.887800
     23 O2          10.5570     1.7090    -0.1890 o          1 6Z4      -0.887800
     24 CB           7.5670     0.8390     0.6780 c3         1 6Z4      -0.000400
     25 OH          -0.8030    -0.0050     3.4550 os         1 6Z4      -0.398100
     26 C15         -2.7290    -1.4550     3.2870 c3         1 6Z4       0.561900
     27 F1          -2.3640    -2.1100     4.4670 f          1 6Z4      -0.205967
     28 F2          -4.1230    -1.4600     3.1620 f          1 6Z4      -0.205967
     29 F3          -2.1610    -2.1150     2.1910 f          1 6Z4      -0.205967
     30 C16         -2.8390     0.7010     4.5060 ca         1 6Z4      -0.110300
     31 C17         -2.1640     0.7540     5.7100 ca         1 6Z4      -0.047000
     32 C18         -2.7250     1.4050     6.7930 ca         1 6Z4      -0.104000
     33 C19         -3.9640     2.0090     6.6780 ca         1 6Z4      -0.021600
     34 Cl1         -4.6620     2.8250     8.0420 cl         1 6Z4      -0.031400
     35 C20         -4.6490     1.9630     5.4780 ca         1 6Z4      -0.098000
     36 C21         -4.0850     1.3120     4.3820 cp         1 6Z4       0.008000
     37 C24         -4.9040     1.7010     0.7340 ca         1 6Z4      -0.097000
     38 C27         -6.1000     0.7230     3.0360 ca         1 6Z4      -0.087500
     39 N5          -0.6960     0.0010     1.1280 nb         1 6Z4      -0.812000
     40 H1           1.8210    -0.2210     3.2740 ha         1 6Z4       0.147000
     41 H2          -2.5090     0.4970     2.4140 h1         1 6Z4       0.101700
     42 H3          -3.2230     2.1740     1.9700 ha         1 6Z4       0.115000
     43 H4          -6.7100     1.1270    -0.2590 ha         1 6Z4       0.101000
     44 H5          -7.7750     0.2620     1.7880 ha         1 6Z4       0.103500
     45 H6          -1.6410    -0.2540    -1.2430 hn         1 6Z4       0.274300
     46 H7          -0.1870     0.2330    -2.0520 hn         1 6Z4       0.274300
     47 H8           3.6510     0.9390    -0.7210 h1         1 6Z4       0.023200
     48 H9           3.4740    -0.8230    -0.7860 h1         1 6Z4       0.023200
     49 H10          5.6910    -1.0950     0.2520 hc         1 6Z4       0.029450
     50 H11          5.8180    -0.1170    -1.2210 hc         1 6Z4       0.029450
     51 H12          5.8310     1.8830     2.5430 hc         1 6Z4       0.029450
     52 H13          5.6990     0.1150     2.5290 hc         1 6Z4       0.029450
     53 H14          3.4880     1.1330     2.8980 h1         1 6Z4       0.023200
     54 H15          3.6570     2.0660     1.4010 h1         1 6Z4       0.023200
     55 H16          5.6500     3.1270     0.6150 h1         1 6Z4      -0.001300
     56 H17          4.9410     2.2610    -0.7740 h1         1 6Z4      -0.001300
     57 H18          7.1400     3.5520    -1.0670 hn         1 6Z4       0.237800
     58 H20          8.3450     2.8660     0.7490 h1         1 6Z4       0.002700
     59 H22          7.8820    -0.0440     0.1360 hc         1 6Z4       0.024700
     60 H23          7.8870     0.7900     1.7120 hc         1 6Z4       0.024700
     61 H24         -1.1940     0.2820     5.8060 ha         1 6Z4       0.128000
     62 H25         -2.1910     1.4440     7.7350 ha         1 6Z4       0.117000
     63 H26         -5.6190     2.4360     5.3880 ha         1 6Z4       0.122000
     64 H27         -4.4410     2.0800    -0.1690 ha         1 6Z4       0.103500
     65 H28         -6.5680     0.3410     3.9350 ha         1 6Z4       0.115000
@<TRIPOS>BOND
     1     1    10 1   
     2     1    11 ar  
     3     1    39 ar  
     4     2     3 ar  
     5     2    11 ar  
     6     2    12 1   
     7     3     4 ar  
     8     3    40 1   
     9     4    25 1   
    10     4    39 ar  
    11     5    25 1   
    12     5    26 1   
    13     5    30 1   
    14     5    41 1   
    15     6     7 ar  
    16     6    36 1   
    17     6    38 ar  
    18     7    37 ar  
    19     7    42 1   
    20     8     9 ar  
    21     8    37 ar  
    22     8    43 1   
    23     9    38 ar  
    24     9    44 1   
    25    10    45 1   
    26    10    46 1   
    27    12    13 1   
    28    12    17 1   
    29    13    14 1   
    30    13    47 1   
    31    13    48 1   
    32    14    15 1   
    33    14    49 1   
    34    14    50 1   
    35    15    16 1   
    36    15    18 1   
    37    15    24 1   
    38    16    17 1   
    39    16    51 1   
    40    16    52 1   
    41    17    53 1   
    42    17    54 1   
    43    18    19 1   
    44    18    55 1   
    45    18    56 1   
    46    19    20 1   
    47    19    57 1   
    48    20    21 1   
    49    20    24 1   
    50    20    58 1   
    51    21    22 1   
    52    21    23 1   
    53    24    59 1   
    54    24    60 1   
    55    26    27 1   
    56    26    28 1   
    57    26    29 1   
    58    30    31 ar  
    59    30    36 ar  
    60    31    32 ar  
    61    31    61 1   
    62    32    33 ar  
    63    32    62 1   
    64    33    34 1   
    65    33    35 ar  
    66    35    36 ar  
    67    35    63 1   
    68    37    64 1   
    69    38    65 1   
@<TRIPOS>SUBSTRUCTURE
     1 6Z4         1 TEMP              0 ****  ****    0 ROOT
