@<TRIPOS>MOLECULE
6Z5
   49    53     1     0     0
SMALL
bcc


@<TRIPOS>ATOM
      1 C2           0.0000     0.0000     0.0000 ca         1 6Z5       0.725900
      2 C7          -0.4000     0.5500    -3.5480 ca         1 6Z5      -0.121000
      3 C9           1.4550    -0.3360    -4.7770 ca         1 6Z5      -0.120000
      4 C10          1.9000    -0.9900    -3.6430 ca         1 6Z5      -0.083000
      5 C11          1.2020    -0.8720    -2.4560 ca         1 6Z5      -0.121000
      6 C13          0.3830     0.0000     4.5230 c          1 6Z5       0.628500
      7 C15          2.5080     1.2580     4.1150 c3         1 6Z5       0.025400
      8 C18         -2.6930     1.2100     3.3140 c2         1 6Z5      -0.194200
      9 C20         -3.6640    -0.6840     2.4230 ca         1 6Z5      -0.090800
     10 C21         -2.6970    -1.1940     3.2910 ca         1 6Z5      -0.104300
     11 C22         -4.4630    -1.5740     1.6930 ca         1 6Z5       0.160100
     12 C            1.3020    -0.0000     2.3270 ca         1 6Z5      -0.461900
     13 C1           2.0000     0.0000     1.1420 ca         1 6Z5       0.542200
     14 N            1.3250     0.0000     0.0000 nb         1 6Z5      -0.709000
     15 N3          -0.7030     0.0000     1.1220 nb         1 6Z5      -0.685000
     16 C4          -0.0930     0.0000     2.3060 ca         1 6Z5       0.450200
     17 N5          -0.6710     0.0060    -1.2120 nu         1 6Z5      -0.281300
     18 C6           0.0440    -0.1050    -2.4070 ca         1 6Z5      -0.001400
     19 C8           0.3070     0.4340    -4.7290 ca         1 6Z5      -0.083000
     20 N12         -0.5910     0.0000     3.5970 n          1 6Z5      -0.033300
     21 C14          1.7040    -0.0000     3.7800 c3         1 6Z5      -0.067700
     22 C16          2.5080    -1.2580     4.1150 c3         1 6Z5       0.025400
     23 O            0.2340     0.0000     5.7270 o          1 6Z5      -0.635500
     24 C17         -2.0200     0.0000     3.9200 c3         1 6Z5       0.115200
     25 C19         -3.6190     0.7890     2.4700 ce         1 6Z5      -0.009200
     26 C23         -4.2890    -2.9390     1.8450 ca         1 6Z5      -0.160000
     27 C24         -3.3300    -3.4270     2.7140 ca         1 6Z5      -0.070000
     28 C25         -2.5340    -2.5530     3.4340 ca         1 6Z5      -0.087000
     29 H1          -1.3000     1.1510    -3.5130 ha         1 6Z5       0.120000
     30 H2           2.0060    -0.4280    -5.7050 ha         1 6Z5       0.101000
     31 H3           2.8010    -1.5910    -3.6830 ha         1 6Z5       0.101000
     32 H4           1.5510    -1.3850    -1.5680 ha         1 6Z5       0.120000
     33 H5           1.9520     2.1350     3.8060 hc         1 6Z5       0.012200
     34 H6           2.6860     1.3000     5.1820 hc         1 6Z5       0.012200
     35 H7           3.4560     1.2300     3.5920 hc         1 6Z5       0.012200
     36 H8          -2.8710     2.0910     3.9190 ha         1 6Z5       0.127000
     37 H9           3.0830     0.0000     1.1420 h4         1 6Z5      -0.016900
     38 H10         -1.6710     0.0610    -1.2300 hn         1 6Z5       0.297800
     39 H11         -0.0390     0.9450    -5.6200 ha         1 6Z5       0.101000
     40 H12          3.4650    -1.2200     3.6080 hc         1 6Z5       0.012200
     41 H13          2.6680    -1.3100     5.1850 hc         1 6Z5       0.012200
     42 H14          1.9610    -2.1340     3.7880 hc         1 6Z5       0.012200
     43 H15         -2.1680    -0.0100     4.9930 h1         1 6Z5       0.073700
     44 H16         -4.5270     1.3630     2.3320 ha         1 6Z5       0.109000
     45 H17         -4.9090    -3.6270     1.2850 ha         1 6Z5       0.113000
     46 H18         -3.1990    -4.4960     2.8290 ha         1 6Z5       0.105000
     47 H19         -1.7840    -2.9390     4.1140 ha         1 6Z5       0.108000
     48 H20         -6.2610    -1.3750     1.1280 ho         1 6Z5       0.402000
     49 O26         -5.4070    -1.0990     0.8390 oh         1 6Z5      -0.492100
@<TRIPOS>BOND
     1     1    14 ar  
     2     1    15 ar  
     3     1    17 1   
     4     2    18 ar  
     5     2    19 ar  
     6     2    29 1   
     7     3     4 ar  
     8     3    19 ar  
     9     3    30 1   
    10     4     5 ar  
    11     4    31 1   
    12     5    18 ar  
    13     5    32 1   
    14     6    20 1   
    15     6    21 1   
    16     6    23 2   
    17     7    21 1   
    18     7    33 1   
    19     7    34 1   
    20     7    35 1   
    21     8    24 1   
    22     8    25 2   
    23     8    36 1   
    24     9    10 ar  
    25     9    11 ar  
    26     9    25 1   
    27    10    24 1   
    28    10    28 ar  
    29    11    26 ar  
    30    11    49 1   
    31    12    13 ar  
    32    12    16 ar  
    33    12    21 1   
    34    13    14 ar  
    35    13    37 1   
    36    15    16 ar  
    37    16    20 1   
    38    17    18 1   
    39    17    38 1   
    40    19    39 1   
    41    20    24 1   
    42    21    22 1   
    43    22    40 1   
    44    22    41 1   
    45    22    42 1   
    46    24    43 1   
    47    25    44 1   
    48    26    27 ar  
    49    26    45 1   
    50    27    28 ar  
    51    27    46 1   
    52    28    47 1   
    53    48    49 1   
@<TRIPOS>SUBSTRUCTURE
     1 6Z5         1 TEMP              0 ****  ****    0 ROOT
