@<TRIPOS>MOLECULE
molecule
   49    53     1     0     0
SMALL
bcc


@<TRIPOS>ATOM
      1 C2           0.0000     0.0000     0.0000 ca         1 6Z5       0.966900
      2 C7          -0.4000     0.5500    -3.5480 ca         1 6Z5      -0.144500
      3 C9           1.4550    -0.3360    -4.7770 ca         1 6Z5      -0.149000
      4 C10          1.9000    -0.9900    -3.6430 ca         1 6Z5      -0.112500
      5 C11          1.2020    -0.8720    -2.4560 ca         1 6Z5      -0.144500
      6 C13          0.3830     0.0000     4.5230 c          1 6Z5       0.722500
      7 C15          2.5080     1.2580     4.1150 c3         1 6Z5      -0.068600
      8 C18         -2.6930     1.2100     3.3140 c2         1 6Z5      -0.197200
      9 C20         -3.6640    -0.6840     2.4230 ca         1 6Z5      -0.075800
     10 C21         -2.6970    -1.1940     3.2910 ca         1 6Z5      -0.095300
     11 C22         -4.4630    -1.5740     1.6930 ca         1 6Z5       0.134100
     12 C            1.3020    -0.0000     2.3270 ca         1 6Z5      -0.445900
     13 C1           2.0000     0.0000     1.1420 ca         1 6Z5       0.536200
     14 N            1.3250     0.0000     0.0000 nb         1 6Z5      -0.801000
     15 N3          -0.7030     0.0000     1.1220 nb         1 6Z5      -0.806000
     16 C4          -0.0930     0.0000     2.3060 ca         1 6Z5       0.633200
     17 N5          -0.6710     0.0060    -1.2120 nu         1 6Z5      -0.749300
     18 C6           0.0440    -0.1050    -2.4070 ca         1 6Z5       0.160600
     19 C8           0.3070     0.4340    -4.7290 ca         1 6Z5      -0.112500
     20 N12         -0.5910     0.0000     3.5970 n          1 6Z5      -0.429300
     21 C14          1.7040    -0.0000     3.7800 c3         1 6Z5      -0.083700
     22 C16          2.5080    -1.2580     4.1150 c3         1 6Z5      -0.068600
     23 O            0.2340     0.0000     5.7270 o          1 6Z5      -0.595500
     24 C17         -2.0200     0.0000     3.9200 c3         1 6Z5       0.191200
     25 C19         -3.6190     0.7890     2.4700 ce         1 6Z5      -0.055200
     26 C23         -4.2890    -2.9390     1.8450 ca         1 6Z5      -0.170000
     27 C24         -3.3300    -3.4270     2.7140 ca         1 6Z5      -0.105000
     28 C25         -2.5340    -2.5530     3.4340 ca         1 6Z5      -0.109000
     29 H1          -1.3000     1.1510    -3.5130 ha         1 6Z5       0.143500
     30 H2           2.0060    -0.4280    -5.7050 ha         1 6Z5       0.127000
     31 H3           2.8010    -1.5910    -3.6830 ha         1 6Z5       0.130000
     32 H4           1.5510    -1.3850    -1.5680 ha         1 6Z5       0.143500
     33 H5           1.9520     2.1350     3.8060 hc         1 6Z5       0.046533
     34 H6           2.6860     1.3000     5.1820 hc         1 6Z5       0.046533
     35 H7           3.4560     1.2300     3.5920 hc         1 6Z5       0.046533
     36 H8          -2.8710     2.0910     3.9190 ha         1 6Z5       0.153000
     37 H9           3.0830     0.0000     1.1420 h4         1 6Z5       0.031100
     38 H10         -1.6710     0.0610    -1.2300 hn         1 6Z5       0.471800
     39 H11         -0.0390     0.9450    -5.6200 ha         1 6Z5       0.130000
     40 H12          3.4650    -1.2200     3.6080 hc         1 6Z5       0.046533
     41 H13          2.6680    -1.3100     5.1850 hc         1 6Z5       0.046533
     42 H14          1.9610    -2.1340     3.7880 hc         1 6Z5       0.046533
     43 H15         -2.1680    -0.0100     4.9930 h1         1 6Z5       0.106700
     44 H16         -4.5270     1.3630     2.3320 ha         1 6Z5       0.142000
     45 H17         -4.9090    -3.6270     1.2850 ha         1 6Z5       0.139000
     46 H18         -3.1990    -4.4960     2.8290 ha         1 6Z5       0.136000
     47 H19         -1.7840    -2.9390     4.1140 ha         1 6Z5       0.136000
     48 H20         -6.2610    -1.3750     1.1280 ho         1 6Z5       0.419000
     49 O26         -5.4070    -1.0990     0.8390 oh         1 6Z5      -0.513100
@<TRIPOS>BOND
     1    49    11 1
     2    11    26 ar
     3    11     9 ar
     4    26    27 ar
     5     9    25 1
     6     9    10 ar
     7    25     8 2
     8     3     4 ar
     9     3    19 ar
    10    27    28 ar
    11     4     5 ar
    12    10    28 ar
    13    10    24 1
    14    19     2 ar
    15     8    24 1
    16     5    18 ar
    17    24    20 1
    18     2    18 ar
    19    18    17 1
    20    20    16 1
    21    20     6 1
    22    15    16 ar
    23    15     1 ar
    24    23     6 2
    25    16    12 ar
    26    17     1 1
    27     6    21 1
    28     1    14 ar
    29    12    21 1
    30    12    13 ar
    31    21    22 1
    32    21     7 1
    33    14    13 ar
    34     2    29 1
    35     3    30 1
    36     4    31 1
    37     5    32 1
    38     7    33 1
    39     7    34 1
    40     7    35 1
    41     8    36 1
    42    13    37 1
    43    17    38 1
    44    19    39 1
    45    22    40 1
    46    22    41 1
    47    22    42 1
    48    24    43 1
    49    25    44 1
    50    26    45 1
    51    27    46 1
    52    28    47 1
    53    49    48 1
@<TRIPOS>SUBSTRUCTURE
     1 6Z5         1 TEMP              0 ****  ****    0 ROOT
