@<TRIPOS>MOLECULE
6Z6
   55    59     1     0     0
SMALL
bcc


@<TRIPOS>ATOM
      1 N1           4.0670     3.5020     1.6790 n1         1 6Z6      -0.219800
      2 C2           0.0000     0.0000     0.0000 ca         1 6Z6      -0.170000
      3 O2           4.5430    -0.0190    -1.4540 os         1 6Z6      -0.173200
      4 C4           2.0730     0.0000     1.1980 ca         1 6Z6      -0.188300
      5 C5           1.3840     0.0010     2.3970 ca         1 6Z6      -0.045500
      6 C6           0.0030     0.0110     2.4010 ca         1 6Z6      -0.170000
      7 O1           3.6380    -2.4740     2.3470 o          1 6Z6      -0.530100
      8 C9           4.0660    -2.4550     1.2100 c          1 6Z6       0.620300
      9 C8           4.0800    -1.2410     0.4960 ce         1 6Z6      -0.269400
     10 C13          4.5250    -1.1800    -0.7720 c2         1 6Z6       0.126900
     11 C14          4.5300     1.1470    -0.7880 c2         1 6Z6      -0.183900
     12 N            4.9840     2.2820    -1.4130 nz         1 6Z6       0.304600
     13 C15          4.0780     1.2280     0.4860 ce         1 6Z6       0.169100
     14 C16          4.0730     2.4910     1.1610 cg         1 6Z6       0.074500
     15 C7           3.5800     0.0000     1.1960 c3         1 6Z6       0.149000
     16 C3           1.3810     0.0000     0.0000 ca         1 6Z6      -0.045500
     17 C1          -0.6930     0.0060     1.2020 ca         1 6Z6       0.204100
     18 O           -2.0530     0.0060     1.2030 os         1 6Z6      -0.299900
     19 C           -2.6990     0.0120     2.4770 c3         1 6Z6       0.246700
     20 C10          4.5730    -3.7290     0.5890 c3         1 6Z6      -0.111400
     21 C11          5.6370    -3.3810    -0.4580 c3         1 6Z6       0.011600
     22 C12          5.0180    -2.4220    -1.4770 c3         1 6Z6       0.037800
     23 C17          6.0910    -4.6370    -1.1550 ca         1 6Z6      -0.067300
     24 C18          5.1810    -5.4540    -1.7520 ca         1 6Z6      -0.110000
     25 C19          5.5820    -6.6200    -2.4020 ca         1 6Z6      -0.149000
     26 C20          6.8950    -6.9740    -2.4590 ca         1 6Z6      -0.071000
     27 C21          7.8630    -6.1550    -1.8550 ca         1 6Z6      -0.027000
     28 C26          7.4550    -4.9670    -1.1980 ca         1 6Z6      -0.018000
     29 C22          9.2280    -6.4880    -1.8920 ca         1 6Z6      -0.070000
     30 C23         10.1380    -5.6690    -1.2960 ca         1 6Z6      -0.097000
     31 C24          9.7360    -4.5040    -0.6460 ca         1 6Z6      -0.075000
     32 C25          8.4240    -4.1450    -0.5980 ca         1 6Z6      -0.124000
     33 H1          -0.5780     0.0610    -0.9140 ha         1 6Z6       0.133500
     34 H2           1.9290     0.0070     3.3330 ha         1 6Z6       0.103000
     35 H3          -0.2910     0.1040     3.4400 ha         1 6Z6       0.133500
     36 H4           5.2460     2.0620    -2.3540 hn         1 6Z6       0.217133
     37 H5           4.2580     2.9710    -1.4220 hn         1 6Z6       0.217133
     38 H6           1.9230     0.0300    -0.9380 ha         1 6Z6       0.103000
     39 H7          -2.4060     0.8980     3.0270 h1         1 6Z6       0.004367
     40 H8          -2.4090    -0.8710     3.0330 h1         1 6Z6       0.004367
     41 H9          -3.7730     0.0130     2.3360 h1         1 6Z6       0.004367
     42 H10          3.7520    -4.2510     0.1120 hc         1 6Z6       0.060700
     43 H11          5.0120    -4.3560     1.3560 hc         1 6Z6       0.060700
     44 H12          6.4790    -2.9010     0.0260 hc         1 6Z6       0.046700
     45 H13          5.7660    -2.1460    -2.2100 hc         1 6Z6       0.047200
     46 H14          4.1850    -2.9090    -1.9690 hc         1 6Z6       0.047200
     47 H15          4.1300    -5.6110    -1.9610 ha         1 6Z6       0.134000
     48 H16          4.9330    -7.3320    -2.8970 ha         1 6Z6       0.114000
     49 H17          7.0790    -7.9040    -2.9840 ha         1 6Z6       0.114000
     50 H18          9.5550    -7.3900    -2.3940 ha         1 6Z6       0.114000
     51 H19         11.1890    -5.9320    -1.3200 ha         1 6Z6       0.111000
     52 H20         10.4810    -3.8700    -0.1800 ha         1 6Z6       0.103000
     53 H21          8.1270    -3.2360    -0.0880 ha         1 6Z6       0.102000
     54 H22          3.9450     0.0060     2.2160 hc         1 6Z6       0.079700
     55 HN3          5.7770     2.6400    -0.9190 hn         1 6Z6       0.217133
@<TRIPOS>BOND
     1     1    14 3   
     2     2    16 ar  
     3     2    17 ar  
     4     2    33 1   
     5     3    10 1   
     6     3    11 1   
     7     4     5 ar  
     8     4    15 1   
     9     4    16 ar  
    10     5     6 ar  
    11     5    34 1   
    12     6    17 ar  
    13     6    35 1   
    14     7     8 2   
    15     8     9 1   
    16     8    20 1   
    17     9    10 2   
    18     9    15 1   
    19    10    22 1   
    20    11    12 1   
    21    11    13 2   
    22    12    36 1   
    23    12    37 1   
    24    12    55 1   
    25    13    14 1   
    26    13    15 1   
    27    15    54 1   
    28    16    38 1   
    29    17    18 1   
    30    18    19 1   
    31    19    39 1   
    32    19    40 1   
    33    19    41 1   
    34    20    21 1   
    35    20    42 1   
    36    20    43 1   
    37    21    22 1   
    38    21    23 1   
    39    21    44 1   
    40    22    45 1   
    41    22    46 1   
    42    23    24 ar  
    43    23    28 ar  
    44    24    25 ar  
    45    24    47 1   
    46    25    26 ar  
    47    25    48 1   
    48    26    27 ar  
    49    26    49 1   
    50    27    28 ar  
    51    27    29 ar  
    52    28    32 ar  
    53    29    30 ar  
    54    29    50 1   
    55    30    31 ar  
    56    30    51 1   
    57    31    32 ar  
    58    31    52 1   
    59    32    53 1   
@<TRIPOS>SUBSTRUCTURE
     1 6Z6         1 TEMP              0 ****  ****    0 ROOT
