@<TRIPOS>MOLECULE
molecule
   55    59     1     0     0
SMALL
bcc


@<TRIPOS>ATOM
      1 N1           4.0670     3.5020     1.6790 n1         1 6Z6      -0.241800
      2 C2           0.0000     0.0000     0.0000 ca         1 6Z6      -0.188000
      3 O2           4.5430    -0.0190    -1.4540 os         1 6Z6      -0.218200
      4 C4           2.0730     0.0000     1.1980 ca         1 6Z6      -0.165300
      5 C5           1.3840     0.0010     2.3970 ca         1 6Z6      -0.074500
      6 C6           0.0030     0.0110     2.4010 ca         1 6Z6      -0.188000
      7 O1           3.6380    -2.4740     2.3470 o          1 6Z6      -0.496100
      8 C9           4.0660    -2.4550     1.2100 c          1 6Z6       0.577300
      9 C8           4.0800    -1.2410     0.4960 ce         1 6Z6      -0.248400
     10 C13          4.5250    -1.1800    -0.7720 c2         1 6Z6       0.125900
     11 C14          4.5300     1.1470    -0.7880 c2         1 6Z6       0.078100
     12 N            4.9840     2.2820    -1.4130 nz         1 6Z6      -0.655400
     13 C15          4.0780     1.2280     0.4860 ce         1 6Z6       0.065100
     14 C16          4.0730     2.4910     1.1610 cg         1 6Z6       0.123500
     15 C7           3.5800     0.0000     1.1960 c3         1 6Z6       0.098000
     16 C3           1.3810     0.0000     0.0000 ca         1 6Z6      -0.074500
     17 C1          -0.6930     0.0060     1.2020 ca         1 6Z6       0.189100
     18 O           -2.0530     0.0060     1.2030 os         1 6Z6      -0.318900
     19 C           -2.6990     0.0120     2.4770 c3         1 6Z6       0.126700
     20 C10          4.5730    -3.7290     0.5890 c3         1 6Z6      -0.167400
     21 C11          5.6370    -3.3810    -0.4580 c3         1 6Z6      -0.014400
     22 C12          5.0180    -2.4220    -1.4770 c3         1 6Z6      -0.024200
     23 C17          6.0910    -4.6370    -1.1550 ca         1 6Z6      -0.068300
     24 C18          5.1810    -5.4540    -1.7520 ca         1 6Z6      -0.132000
     25 C19          5.5820    -6.6200    -2.4020 ca         1 6Z6      -0.167000
     26 C20          6.8950    -6.9740    -2.4590 ca         1 6Z6      -0.101000
     27 C21          7.8630    -6.1550    -1.8550 ca         1 6Z6      -0.029000
     28 C26          7.4550    -4.9670    -1.1980 ca         1 6Z6      -0.019000
     29 C22          9.2280    -6.4880    -1.8920 ca         1 6Z6      -0.100000
     30 C23         10.1380    -5.6690    -1.2960 ca         1 6Z6      -0.124000
     31 C24          9.7360    -4.5040    -0.6460 ca         1 6Z6      -0.106000
     32 C25          8.4240    -4.1450    -0.5980 ca         1 6Z6      -0.142000
     33 H1          -0.5780     0.0610    -0.9140 ha         1 6Z6       0.158500
     34 H2           1.9290     0.0070     3.3330 ha         1 6Z6       0.131000
     35 H3          -0.2910     0.1040     3.4400 ha         1 6Z6       0.158500
     36 H4           5.2460     2.0620    -2.3540 hn         1 6Z6       0.473467
     37 H5           4.2580     2.9710    -1.4220 hn         1 6Z6       0.473467
     38 H6           1.9230     0.0300    -0.9380 ha         1 6Z6       0.131000
     39 H7          -2.4060     0.8980     3.0270 h1         1 6Z6       0.050367
     40 H8          -2.4090    -0.8710     3.0330 h1         1 6Z6       0.050367
     41 H9          -3.7730     0.0130     2.3360 h1         1 6Z6       0.050367
     42 H10          3.7520    -4.2510     0.1120 hc         1 6Z6       0.095700
     43 H11          5.0120    -4.3560     1.3560 hc         1 6Z6       0.095700
     44 H12          6.4790    -2.9010     0.0260 hc         1 6Z6       0.070700
     45 H13          5.7660    -2.1460    -2.2100 hc         1 6Z6       0.085200
     46 H14          4.1850    -2.9090    -1.9690 hc         1 6Z6       0.085200
     47 H15          4.1300    -5.6110    -1.9610 ha         1 6Z6       0.156000
     48 H16          4.9330    -7.3320    -2.8970 ha         1 6Z6       0.140000
     49 H17          7.0790    -7.9040    -2.9840 ha         1 6Z6       0.143000
     50 H18          9.5550    -7.3900    -2.3940 ha         1 6Z6       0.144000
     51 H19         11.1890    -5.9320    -1.3200 ha         1 6Z6       0.140000
     52 H20         10.4810    -3.8700    -0.1800 ha         1 6Z6       0.133000
     53 H21          8.1270    -3.2360    -0.0880 ha         1 6Z6       0.122000
     54 H22          3.9450     0.0060     2.2160 hc         1 6Z6       0.115700
     55 HN3          5.7770     2.6400    -0.9190 hn         1 6Z6       0.473467
@<TRIPOS>BOND
     1    19    18 1
     2    18    17 1
     3    17     2 ar
     4    17     6 ar
     5     2    16 ar
     6     6     5 ar
     7    16     4 ar
     8     5     4 ar
     9     4    15 1
    10     1    14 3
    11    14    13 1
    12    15    13 1
    13    15     9 1
    14     7     8 2
    15    13    11 2
    16     9     8 1
    17     9    10 2
    18     8    20 1
    19    11    12 1
    20    11     3 1
    21    31    32 ar
    22    31    30 ar
    23    10     3 1
    24    10    22 1
    25    20    21 1
    26    32    28 ar
    27    30    29 ar
    28    22    21 1
    29    21    23 1
    30    28    23 ar
    31    28    27 ar
    32    23    24 ar
    33    29    27 ar
    34    27    26 ar
    35    24    25 ar
    36    26    25 ar
    37     2    33 1
    38     5    34 1
    39     6    35 1
    40    12    36 1
    41    12    37 1
    42    16    38 1
    43    19    39 1
    44    19    40 1
    45    19    41 1
    46    20    42 1
    47    20    43 1
    48    21    44 1
    49    22    45 1
    50    22    46 1
    51    24    47 1
    52    25    48 1
    53    26    49 1
    54    29    50 1
    55    30    51 1
    56    31    52 1
    57    32    53 1
    58    15    54 1
    59    55    12 1
@<TRIPOS>SUBSTRUCTURE
     1 6Z6         1 TEMP              0 ****  ****    0 ROOT
