@<TRIPOS>MOLECULE
6Z7
   53    56     1     0     0
SMALL
bcc


@<TRIPOS>ATOM
      1 C1           0.0000     0.0000     0.0000 c3         1 6Z7       0.244700
      2 O2           1.4280     0.0000     0.0000 os         1 6Z7      -0.303900
      3 C3           2.0460     0.0000     1.2110 ca         1 6Z7       0.207100
      4 C4           1.2890     0.0010     2.3740 ca         1 6Z7      -0.272000
      5 C5           1.9170     0.0010     3.6110 ca         1 6Z7       0.198100
      6 O6           1.1760     0.0020     4.7490 oh         1 6Z7      -0.505100
      7 C7           3.3020     0.0010     3.6850 ca         1 6Z7      -0.239000
      8 C8           4.0590    -0.0010     2.5220 ca         1 6Z7       0.060600
      9 N9           5.4550    -0.0030     2.5960 nu         1 6Z7      -0.212000
     10 C10          6.0960     0.6440     3.6470 ca         1 6Z7       0.068600
     11 C11          7.3400     0.1970     4.0830 ca         1 6Z7      -0.174500
     12 C12          7.9780     0.8350     5.1220 ca         1 6Z7      -0.009000
     13 C13          7.3730     1.9320     5.7420 ca         1 6Z7      -0.236600
     14 C14          6.1240     2.3790     5.3030 ca         1 6Z7      -0.009000
     15 C15          5.4940     1.7410     4.2590 ca         1 6Z7      -0.174500
     16 C16          8.0530     2.6180     6.8580 c          1 6Z7       0.608700
     17 O17          9.1390     2.2270     7.2390 o          1 6Z7      -0.633100
     18 N18          7.4690     3.6760     7.4540 ns         1 6Z7      -0.053100
     19 C19          8.1580     4.3920     8.4380 ca         1 6Z7      -0.035400
     20 C20          9.5370     4.5380     8.3580 ca         1 6Z7      -0.059000
     21 C21         10.2090     5.2440     9.3340 ca         1 6Z7      -0.044000
     22 C22          9.5170     5.8110    10.3920 ca         1 6Z7      -0.147300
     23 C23         10.2920     6.5710    11.4380 c3         1 6Z7       0.039900
     24 C24          9.3380     7.4340    12.2640 c3         1 6Z7      -0.028200
     25 N25          8.2310     6.5890    12.7370 ny         1 6Z7       0.045000
     26 C26          7.3550     6.2730    11.6060 c3         1 6Z7       0.056100
     27 C27          8.1460     5.6700    10.4750 ca         1 6Z7      -0.140300
     28 C28          7.4670     4.9640     9.4960 ca         1 6Z7      -0.113000
     29 C29          3.4290    -0.0060     1.2840 ca         1 6Z7      -0.201000
     30 HN25         8.6080     5.7370    13.1030 hn         1 6Z7       0.241800
     31 HN2A         7.7060     7.0960    13.4220 hn         1 6Z7       0.241800
     32 H1          -0.3610    -0.0020    -1.0210 h1         1 6Z7       0.001033
     33 H1A         -0.3610     0.8860     0.5090 h1         1 6Z7       0.001033
     34 H1B         -0.3610    -0.8830     0.5130 h1         1 6Z7       0.001033
     35 H4           0.2070     0.0060     2.3160 ha         1 6Z7       0.137000
     36 HO6          1.0180    -0.8870     5.0220 ho         1 6Z7       0.410000
     37 H7           3.7920     0.0000     4.6510 ha         1 6Z7       0.132000
     38 HN9          5.9920    -0.4860     1.9030 hn         1 6Z7       0.294800
     39 H11          7.8080    -0.6530     3.6020 ha         1 6Z7       0.128500
     40 H12          8.9460     0.4860     5.4610 ha         1 6Z7       0.108000
     41 H14          5.6540     3.2310     5.7810 ha         1 6Z7       0.108000
     42 H15          4.5250     2.0870     3.9180 ha         1 6Z7       0.128500
     43 HN18         6.5410     3.9470     7.1960 hn         1 6Z7       0.186500
     44 H20         10.0680     4.1830     7.4830 ha         1 6Z7       0.155000
     45 H21         11.2850     5.3580     9.2710 ha         1 6Z7       0.123000
     46 H23         10.7980     5.8690    12.0900 hc         1 6Z7       0.054700
     47 H23A        11.0220     7.2070    10.9510 hc         1 6Z7       0.054700
     48 H24          8.9460     8.2340    11.6470 hx         1 6Z7       0.079200
     49 H24A         9.8670     7.8490    13.1130 hx         1 6Z7       0.079200
     50 H26          6.8990     7.1910    11.2560 hx         1 6Z7       0.076200
     51 H26A         6.6160     5.5520    11.9320 hx         1 6Z7       0.076200
     52 H28          6.3900     4.8610     9.5550 ha         1 6Z7       0.119000
     53 H29          4.0200    -0.0070     0.3760 ha         1 6Z7       0.127000
@<TRIPOS>BOND
     1     1     2 1   
     2     1    32 1   
     3     1    33 1   
     4     1    34 1   
     5     2     3 1   
     6     3     4 ar  
     7     3    29 ar  
     8     4     5 ar  
     9     4    35 1   
    10     5     6 1   
    11     5     7 ar  
    12     6    36 1   
    13     7     8 ar  
    14     7    37 1   
    15     8     9 1   
    16     8    29 ar  
    17     9    10 1   
    18     9    38 1   
    19    10    11 ar  
    20    10    15 ar  
    21    11    12 ar  
    22    11    39 1   
    23    12    13 ar  
    24    12    40 1   
    25    13    14 ar  
    26    13    16 1   
    27    14    15 ar  
    28    14    41 1   
    29    15    42 1   
    30    16    17 2   
    31    16    18 1   
    32    18    19 1   
    33    18    43 1   
    34    19    20 ar  
    35    19    28 ar  
    36    20    21 ar  
    37    20    44 1   
    38    21    22 ar  
    39    21    45 1   
    40    22    23 1   
    41    22    27 ar  
    42    23    24 1   
    43    23    46 1   
    44    23    47 1   
    45    24    25 1   
    46    24    48 1   
    47    24    49 1   
    48    25    26 1   
    49    25    30 1   
    50    25    31 1   
    51    26    27 1   
    52    26    50 1   
    53    26    51 1   
    54    27    28 ar  
    55    28    52 1   
    56    29    53 1   
@<TRIPOS>SUBSTRUCTURE
     1 6Z7         1 TEMP              0 ****  ****    0 ROOT
