@<TRIPOS>MOLECULE
6Z9
   50    52     1     0     0
SMALL
bcc


@<TRIPOS>ATOM
      1 C3           0.0000     0.0000     0.0000 ca         1 6Z9      -0.237500
      2 C4           1.3850     0.0000     0.0000 ca         1 6Z9       0.160900
      3 C8           1.3900    -0.0010     2.3990 ca         1 6Z9      -0.085500
      4 C6           2.0790     0.0000     1.1990 ca         1 6Z9       0.187900
      5 C11          2.7830     1.7250     4.1520 c3         1 6Z9       0.003400
      6 C12          3.6350     1.8430     5.4170 c3         1 6Z9       0.263400
      7 C15          0.0030    -0.0010     2.4010 ca         1 6Z9       0.121600
      8 C17         -1.4650    -1.2440     3.7770 c3         1 6Z9       0.213800
      9 C18         -0.7230    -2.1730     4.7380 c3         1 6Z9      -0.031400
     10 C19         -1.6360    -3.3620     5.0620 c3         1 6Z9      -0.024400
     11 C20         -2.7910    -2.8600     5.9270 c3         1 6Z9       0.029900
     12 C21         -3.4460    -1.6590     5.2950 ca         1 6Z9      -0.051300
     13 C22         -2.8340    -0.9150     4.3110 ca         1 6Z9      -0.122300
     14 C23         -3.4890     0.1870     3.7750 ca         1 6Z9      -0.127000
     15 C24         -4.7470     0.5380     4.2180 ca         1 6Z9      -0.093000
     16 C25         -5.3630    -0.2120     5.2020 ca         1 6Z9      -0.081000
     17 C26         -4.7130    -1.3050     5.7380 ca         1 6Z9      -0.094000
     18 C27         -0.6930    -0.0010     1.1970 ca         1 6Z9       0.155900
     19 O30         -2.1640     0.5510    -1.2460 o          1 6Z9      -0.473300
     20 S2          -0.8800     0.0080    -1.5270 sy         1 6Z9       0.949200
     21 O1           0.0020     0.5580    -2.4950 o          1 6Z9      -0.473300
     22 N29         -1.1250    -1.5720    -1.9600 nz         1 6Z9      -0.131500
     23 F28         -2.0430    -0.0010     1.1960 f          1 6Z9      -0.090900
     24 S9           2.2740    -0.0010     3.9230 sy         1 6Z9       0.869300
     25 O14          1.3020    -0.3670     4.8920 o          1 6Z9      -0.548300
     26 O13          4.0360     3.2030     5.5970 oh         1 6Z9      -0.590800
     27 O10          3.4050    -0.8250     3.6730 o          1 6Z9      -0.548300
     28 F7           3.4300     0.0000     1.1970 f          1 6Z9      -0.074900
     29 F5           2.0590     0.0010    -1.1710 f          1 6Z9      -0.085900
     30 N16         -0.6960    -0.0030     3.6140 nu         1 6Z9      -0.450600
     31 H1           3.3620     2.0470     3.2950 h1         1 6Z9       0.075200
     32 H2           1.9040     2.3500     4.2500 h1         1 6Z9       0.075200
     33 H3           4.5150     1.2170     5.3200 h1         1 6Z9       0.003200
     34 H4           3.0560     1.5210     6.2740 h1         1 6Z9       0.003200
     35 H5          -1.5670    -1.7350     2.8170 h1         1 6Z9       0.000700
     36 H6          -0.4850    -1.6380     5.6490 hc         1 6Z9       0.041700
     37 H7           0.1860    -2.5300     4.2700 hc         1 6Z9       0.041700
     38 H8          -2.0360    -3.7620     4.1380 hc         1 6Z9       0.016700
     39 H9          -1.0710    -4.0980     5.6200 hc         1 6Z9       0.016700
     40 H10         -3.5280    -3.6500     6.0100 hc         1 6Z9       0.031200
     41 H11         -2.3970    -2.5690     6.8930 hc         1 6Z9       0.031200
     42 H12         -3.0070     0.7760     3.0040 ha         1 6Z9       0.096000
     43 H13         -5.2530     1.3980     3.7940 ha         1 6Z9       0.108000
     44 H14         -6.3510     0.0590     5.5540 ha         1 6Z9       0.112000
     45 H15         -5.1960    -1.8930     6.5090 ha         1 6Z9       0.114000
     46 H16         -1.4220    -1.6140    -2.9150 hn         1 6Z9       0.317467
     47 H17         -1.8290    -1.9740    -1.3730 hn         1 6Z9       0.317467
     48 H18          4.5230     3.2840     6.4000 ho         1 6Z9       0.409000
     49 H19         -1.0450     0.8560     3.9910 hn         1 6Z9       0.330800
     50 H293        -0.2730    -2.0850    -1.8460 hn         1 6Z9       0.317467
@<TRIPOS>BOND
     1     1     2 ar  
     2     1    18 ar  
     3     1    20 1   
     4     2     4 ar  
     5     2    29 1   
     6     3     4 ar  
     7     3     7 ar  
     8     3    24 1   
     9     4    28 1   
    10     5     6 1   
    11     5    24 1   
    12     5    31 1   
    13     5    32 1   
    14     6    26 1   
    15     6    33 1   
    16     6    34 1   
    17     7    18 ar  
    18     7    30 1   
    19     8     9 1   
    20     8    13 1   
    21     8    30 1   
    22     8    35 1   
    23     9    10 1   
    24     9    36 1   
    25     9    37 1   
    26    10    11 1   
    27    10    38 1   
    28    10    39 1   
    29    11    12 1   
    30    11    40 1   
    31    11    41 1   
    32    12    13 ar  
    33    12    17 ar  
    34    13    14 ar  
    35    14    15 ar  
    36    14    42 1   
    37    15    16 ar  
    38    15    43 1   
    39    16    17 ar  
    40    16    44 1   
    41    17    45 1   
    42    18    23 1   
    43    19    20 2   
    44    20    21 2   
    45    20    22 1   
    46    22    46 1   
    47    22    47 1   
    48    22    50 1   
    49    24    25 2   
    50    24    27 2   
    51    26    48 1   
    52    30    49 1   
@<TRIPOS>SUBSTRUCTURE
     1 6Z9         1 TEMP              0 ****  ****    0 ROOT
