@<TRIPOS>MOLECULE
molecule
   50    52     1     0     0
SMALL
bcc


@<TRIPOS>ATOM
      1 C3           0.0000     0.0000     0.0000 ca         1 6Z9      -0.369500
      2 C4           1.3850     0.0000     0.0000 ca         1 6Z9       0.170900
      3 C8           1.3900    -0.0010     2.3990 ca         1 6Z9      -0.221500
      4 C6           2.0790     0.0000     1.1990 ca         1 6Z9       0.190900
      5 C11          2.7830     1.7250     4.1520 c3         1 6Z9      -0.198600
      6 C12          3.6350     1.8430     5.4170 c3         1 6Z9       0.170400
      7 C15          0.0030    -0.0010     2.4010 ca         1 6Z9       0.219600
      8 C17         -1.4650    -1.2440     3.7770 c3         1 6Z9       0.282800
      9 C18         -0.7230    -2.1730     4.7380 c3         1 6Z9      -0.071400
     10 C19         -1.6360    -3.3620     5.0620 c3         1 6Z9      -0.084400
     11 C20         -2.7910    -2.8600     5.9270 c3         1 6Z9      -0.039100
     12 C21         -3.4460    -1.6590     5.2950 ca         1 6Z9      -0.051300
     13 C22         -2.8340    -0.9150     4.3110 ca         1 6Z9      -0.116300
     14 C23         -3.4890     0.1870     3.7750 ca         1 6Z9      -0.142000
     15 C24         -4.7470     0.5380     4.2180 ca         1 6Z9      -0.124000
     16 C25         -5.3630    -0.2120     5.2020 ca         1 6Z9      -0.108000
     17 C26         -4.7130    -1.3050     5.7380 ca         1 6Z9      -0.122000
     18 C27         -0.6930    -0.0010     1.1970 ca         1 6Z9       0.170900
     19 O30         -2.1640     0.5510    -1.2460 o          1 6Z9      -0.492300
     20 S2          -0.8800     0.0080    -1.5270 sy         1 6Z9       1.243200
     21 O1           0.0020     0.5580    -2.4950 o          1 6Z9      -0.492300
     22 N29         -1.1250    -1.5720    -1.9600 nz         1 6Z9      -0.809500
     23 F28         -2.0430    -0.0010     1.1960 f          1 6Z9      -0.092900
     24 S9           2.2740    -0.0010     3.9230 sy         1 6Z9       1.171300
     25 O14          1.3020    -0.3670     4.8920 o          1 6Z9      -0.569800
     26 O13          4.0360     3.2030     5.5970 oh         1 6Z9      -0.594800
     27 O10          3.4050    -0.8250     3.6730 o          1 6Z9      -0.569800
     28 F7           3.4300     0.0000     1.1970 f          1 6Z9      -0.070900
     29 F5           2.0590     0.0010    -1.1710 f          1 6Z9      -0.088900
     30 N16         -0.6960    -0.0030     3.6140 nu         1 6Z9      -0.797600
     31 H1           3.3620     2.0470     3.2950 h1         1 6Z9       0.113700
     32 H2           1.9040     2.3500     4.2500 h1         1 6Z9       0.113700
     33 H3           4.5150     1.2170     5.3200 h1         1 6Z9       0.040200
     34 H4           3.0560     1.5210     6.2740 h1         1 6Z9       0.040200
     35 H5          -1.5670    -1.7350     2.8170 h1         1 6Z9       0.024700
     36 H6          -0.4850    -1.6380     5.6490 hc         1 6Z9       0.066200
     37 H7           0.1860    -2.5300     4.2700 hc         1 6Z9       0.066200
     38 H8          -2.0360    -3.7620     4.1380 hc         1 6Z9       0.048200
     39 H9          -1.0710    -4.0980     5.6200 hc         1 6Z9       0.048200
     40 H10         -3.5280    -3.6500     6.0100 hc         1 6Z9       0.064700
     41 H11         -2.3970    -2.5690     6.8930 hc         1 6Z9       0.064700
     42 H12         -3.0070     0.7760     3.0040 ha         1 6Z9       0.118000
     43 H13         -5.2530     1.3980     3.7940 ha         1 6Z9       0.138000
     44 H14         -6.3510     0.0590     5.5540 ha         1 6Z9       0.143000
     45 H15         -5.1960    -1.8930     6.5090 ha         1 6Z9       0.143000
     46 H16         -1.4220    -1.6140    -2.9150 hn         1 6Z9       0.496467
     47 H17         -1.8290    -1.9740    -1.3730 hn         1 6Z9       0.496467
     48 H18          4.5230     3.2840     6.4000 ho         1 6Z9       0.422000
     49 H19         -1.0450     0.8560     3.9910 hn         1 6Z9       0.466800
     50 H293        -0.2730    -2.0850    -1.8460 hn         1 6Z9       0.496467
@<TRIPOS>BOND
     1    21    20 2   
     2    16    15 ar  
     3    16    17 ar  
     4    15    14 ar  
     5    17    12 ar  
     6    14    13 ar  
     7    19    20 2   
     8    12    13 ar  
     9    12    11 1   
    10    23    18 1   
    11    13     8 1   
    12    11    10 1   
    13    20    22 1   
    14    20     1 1   
    15     8     9 1   
    16     8    30 1   
    17     9    10 1   
    18    18     1 ar  
    19    18     7 ar  
    20     1     2 ar  
    21    30     7 1   
    22     7     3 ar  
    23     2    29 1   
    24     2     4 ar  
    25     3     4 ar  
    26     3    24 1   
    27     4    28 1   
    28    25    24 2   
    29    27    24 2   
    30    24     5 1   
    31    26     6 1   
    32     6     5 1   
    33     5    31 1   
    34     5    32 1   
    35     6    33 1   
    36     6    34 1   
    37     8    35 1   
    38     9    36 1   
    39     9    37 1   
    40    10    38 1   
    41    10    39 1   
    42    11    40 1   
    43    11    41 1   
    44    14    42 1   
    45    15    43 1   
    46    16    44 1   
    47    17    45 1   
    48    22    46 1   
    49    22    47 1   
    50    26    48 1   
    51    30    49 1   
    52    50    22 1   
@<TRIPOS>SUBSTRUCTURE
     1 6Z9         1 TEMP              0 ****  ****    0 ROOT
