@<TRIPOS>MOLECULE
molecule
   36    39     1     0     0
SMALL
bcc


@<TRIPOS>ATOM
      1 N12          0.0000     0.0000     0.0000 nc         1 6ZA      -0.637100
      2 C15          2.6340     0.1400     7.0260 c3         1 6ZA      -0.013900
      3 C17          1.6480     0.1870     4.9630 c3         1 6ZA       0.218800
      4 C20          3.4180     0.0010     2.9590 cc         1 6ZA       0.496400
      5 C21          2.0430     0.0000     1.2880 cd         1 6ZA       0.277800
      6 C22          1.3420     0.0000     0.0000 c          1 6ZA       0.626000
      7 P02          2.9840    -1.9180     9.1200 p5         1 6ZA       1.153200
      8 O03          2.6780     0.8100     5.7690 os         1 6ZA      -0.361600
      9 O04          2.0500    -2.0460     7.7880 os         1 6ZA      -0.463200
     10 O05          3.5440    -0.3940     9.1580 os         1 6ZA      -0.492200
     11 O06          0.1260    -1.4630     5.9470 oh         1 6ZA      -0.501800
     12 O07          4.2060    -2.9630     9.0380 oh         1 6ZA      -0.697400
     13 O08          1.9660    -0.0580    -1.0480 o          1 6ZA      -0.415100
     14 N09          2.1610    -0.0000     3.4870 na         1 6ZA      -0.220900
     15 N10         -0.0870    -0.0010     2.3440 na         1 6ZA      -0.672600
     16 N11          3.3450     0.0000     1.6590 nd         1 6ZA      -0.586000
     17 C14          2.5020    -1.3540     6.6200 c3         1 6ZA       0.115100
     18 C16          1.4660    -1.2580     5.4930 c3         1 6ZA       0.084100
     19 C18          3.8440     0.3020     7.9240 c3         1 6ZA       0.220400
     20 C19          1.2800     0.0000     2.4490 cc         1 6ZA      -0.036000
     21 C23         -0.6850    -0.0000     1.1230 cd         1 6ZA       0.693100
     22 H151         1.7450     0.4450     7.5640 h1         1 6ZA       0.091700
     23 H171         0.7290     0.7550     5.0390 h2         1 6ZA       0.093700
     24 H201         4.2420    -0.1230     3.6510 h5         1 6ZA       0.098100
     25 H061        -0.1680    -0.5980     5.7130 ho         1 6ZA       0.373000
     26 H071         4.2640    -3.4440     9.8470 ho         1 6ZA       0.510000
     27 H101        -0.6490    -0.0010     3.1720 hn         1 6ZA       0.444800
     28 H131        -2.4080    -0.8070     1.5350 hn         1 6ZA       0.487133
     29 H132        -2.3430    -0.0210     0.1030 hn         1 6ZA       0.487133
     30 H141         3.4450    -1.7480     6.2610 h1         1 6ZA       0.087700
     31 H161         1.7230    -1.9630     4.7110 h1         1 6ZA       0.102700
     32 H181         4.4250    -0.3620     7.2960 h1         1 6ZA       0.085200
     33 H182         4.0710     1.3610     7.9630 h1         1 6ZA       0.085200
     34 S01          1.9690    -2.2610    10.6440 s          1 6ZA      -0.474000
     35 N13         -2.0530    -0.0000     1.0610 nz         1 6ZA      -0.747600
     36 H133        -2.4050     0.8470     1.4600 hn         1 6ZA       0.487133
@<TRIPOS>BOND
     1     1     6 1   
     2     1    21 2   
     3     2     8 1   
     4     2    19 1   
     5     3     8 1   
     6     3    14 1   
     7     3    18 1   
     8     4    14 1   
     9     4    16 2   
    10     5     6 1   
    11     5    16 1   
    12     5    20 2   
    13     6    13 2   
    14    34     7 2   
    15     7     9 1   
    16     7    10 1   
    17     7    12 1   
    18     9    17 1   
    19    10    19 1   
    20    11    18 1   
    21    14    20 1   
    22    15    20 1   
    23    15    21 1   
    24    35    21 1   
    25    17    18 1   
    26     2    22 1   
    27     3    23 1   
    28     4    24 1   
    29    11    25 1   
    30    12    26 1   
    31    15    27 1   
    32    35    28 1   
    33    35    29 1   
    34    17    30 1   
    35    18    31 1   
    36    19    32 1   
    37    19    33 1   
    38     2    17 1   
    39    36    35 1   
@<TRIPOS>SUBSTRUCTURE
     1 6ZA         1 TEMP              0 ****  ****    0 ROOT
