@<TRIPOS>MOLECULE
6ZB
   30    31     1     0     0
SMALL
bcc


@<TRIPOS>ATOM
      1 O            0.0000     0.0000     0.0000 o          1 6ZB      -0.610100
      2 C            1.2130     0.0000     0.0000 c          1 6ZB       0.543100
      3 N03          1.8860     0.0000     1.1670 ns         1 6ZB       0.023600
      4 O04          1.1780    -0.0000     2.3940 oh         1 6ZB      -0.415100
      5 CA           1.9670    -0.0070    -1.3050 c3         1 6ZB      -0.152500
      6 N            1.0840    -0.4850    -2.3770 nz         1 6ZB       0.080400
      7 CB           2.4380     1.4120    -1.6280 c3         1 6ZB       0.088800
      8 CG           3.2960     1.3870    -2.8670 cc         1 6ZB      -0.277400
      9 CD2          2.8250     1.4360    -4.2530 ca         1 6ZB      -0.116800
     10 CE2          3.9780     1.3880    -5.0580 ca         1 6ZB      -0.221200
     11 NE1          5.0610     1.3150    -4.2100 na         1 6ZB       0.394600
     12 CD1          4.6360     1.3210    -2.9090 cd         1 6ZB      -0.202100
     13 CE3          1.5640     1.5150    -4.8480 ca         1 6ZB      -0.116000
     14 CZ3          1.4570     1.5450    -6.2100 ca         1 6ZB      -0.076000
     15 CH2          2.5920     1.4970    -7.0080 ca         1 6ZB      -0.071000
     16 CZ2          3.8460     1.4190    -6.4410 ca         1 6ZB      -0.065000
     17 H1           2.8870    -0.0280     1.1680 hn         1 6ZB       0.161500
     18 H2           1.7580    -0.2540     3.0920 ho         1 6ZB       0.417000
     19 HA           2.8250    -0.6630    -1.2230 hx         1 6ZB       0.087700
     20 H            1.6260    -0.6660    -3.1990 hn         1 6ZB       0.235467
     21 HN2          0.3950     0.2120    -2.5780 hn         1 6ZB       0.235467
     22 HB1          1.5780     2.0490    -1.7980 hc         1 6ZB       0.051200
     23 HB2          3.0160     1.7990    -0.7970 hc         1 6ZB       0.051200
     24 HE1          6.0180     1.2710    -4.5020 hn         1 6ZB       0.132700
     25 HD1          5.2840     1.2780    -2.0420 h4         1 6ZB       0.147000
     26 HE3          0.6740     1.5530    -4.2320 ha         1 6ZB       0.083000
     27 HZ3          0.4780     1.6060    -6.6700 ha         1 6ZB       0.116000
     28 HH2          2.4910     1.5220    -8.0860 ha         1 6ZB       0.121000
     29 HZ2          4.7260     1.3820    -7.0720 ha         1 6ZB       0.117000
     30 HN3          0.6230    -1.3230    -2.0810 hn         1 6ZB       0.235467
@<TRIPOS>BOND
     1     1     2 2   
     2     2     3 1   
     3     2     5 1   
     4     3     4 1   
     5     3    17 1   
     6     4    18 1   
     7     5     6 1   
     8     5     7 1   
     9     5    19 1   
    10     6    20 1   
    11     6    21 1   
    12     6    30 1   
    13     7     8 1   
    14     7    22 1   
    15     7    23 1   
    16     8     9 1   
    17     8    12 2   
    18     9    10 ar  
    19     9    13 ar  
    20    10    11 1   
    21    10    16 ar  
    22    11    12 1   
    23    11    24 1   
    24    12    25 1   
    25    13    14 ar  
    26    13    26 1   
    27    14    15 ar  
    28    14    27 1   
    29    15    16 ar  
    30    15    28 1   
    31    16    29 1   
@<TRIPOS>SUBSTRUCTURE
     1 6ZB         1 TEMP              0 ****  ****    0 ROOT
