@<TRIPOS>MOLECULE
molecule
   30    31     1     0     0
SMALL
bcc


@<TRIPOS>ATOM
      1 O            0.0000     0.0000     0.0000 o          1 6ZB      -0.559100
      2 C            1.2130     0.0000     0.0000 c          1 6ZB       0.649100
      3 N03          1.8860     0.0000     1.1670 ns         1 6ZB      -0.436400
      4 O04          1.1780    -0.0000     2.3940 oh         1 6ZB      -0.328100
      5 CA           1.9670    -0.0070    -1.3050 c3         1 6ZB       0.035500
      6 N            1.0840    -0.4850    -2.3770 nz         1 6ZB      -0.790600
      7 CB           2.4380     1.4120    -1.6280 c3         1 6ZB      -0.007200
      8 CG           3.2960     1.3870    -2.8670 cc         1 6ZB      -0.259400
      9 CD2          2.8250     1.4360    -4.2530 ca         1 6ZB      -0.128800
     10 CE2          3.9780     1.3880    -5.0580 ca         1 6ZB      -0.029200
     11 NE1          5.0610     1.3150    -4.2100 na         1 6ZB      -0.160400
     12 CD1          4.6360     1.3210    -2.9090 cd         1 6ZB      -0.038100
     13 CE3          1.5640     1.5150    -4.8480 ca         1 6ZB      -0.140000
     14 CZ3          1.4570     1.5450    -6.2100 ca         1 6ZB      -0.115000
     15 CH2          2.5920     1.4970    -7.0080 ca         1 6ZB      -0.094000
     16 CZ2          3.8460     1.4190    -6.4410 ca         1 6ZB      -0.113000
     17 H1           2.8870    -0.0280     1.1680 hn         1 6ZB       0.334500
     18 H2           1.7580    -0.2540     3.0920 ho         1 6ZB       0.424000
     19 HA           2.8250    -0.6630    -1.2230 hx         1 6ZB       0.115700
     20 H            1.6260    -0.6660    -3.1990 hn         1 6ZB       0.466467
     21 HN2          0.3950     0.2120    -2.5780 hn         1 6ZB       0.466467
     22 HB1          1.5780     2.0490    -1.7980 hc         1 6ZB       0.092200
     23 HB2          3.0160     1.7990    -0.7970 hc         1 6ZB       0.092200
     24 HE1          6.0180     1.2710    -4.5020 hn         1 6ZB       0.320700
     25 HD1          5.2840     1.2780    -2.0420 h4         1 6ZB       0.177000
     26 HE3          0.6740     1.5530    -4.2320 ha         1 6ZB       0.105000
     27 HZ3          0.4780     1.6060    -6.6700 ha         1 6ZB       0.148000
     28 HH2          2.4910     1.5220    -8.0860 ha         1 6ZB       0.156000
     29 HZ2          4.7260     1.3820    -7.0720 ha         1 6ZB       0.149000
     30 HN3          0.6230    -1.3230    -2.0810 hn         1 6ZB       0.466467
@<TRIPOS>BOND
     1    11    12 1   
     2    11    10 1   
     3    12     8 2   
     4    10    16 ar  
     5    10     9 ar  
     6    16    15 ar  
     7     8     7 1   
     8     8     9 1   
     9     7     5 1   
    10     9    13 ar  
    11     1     2 2   
    12     5     2 1   
    13     5     6 1   
    14    15    14 ar  
    15     2     3 1   
    16    13    14 ar  
    17     3     4 1   
    18     3    17 1   
    19     4    18 1   
    20     5    19 1   
    21     6    20 1   
    22     6    21 1   
    23     7    22 1   
    24     7    23 1   
    25    11    24 1   
    26    12    25 1   
    27    13    26 1   
    28    14    27 1   
    29    15    28 1   
    30    16    29 1   
    31    30     6 1   
@<TRIPOS>SUBSTRUCTURE
     1 6ZB         1 TEMP              0 ****  ****    0 ROOT
