@<TRIPOS>MOLECULE
6ZC
   42    43     1     0     0
SMALL
bcc


@<TRIPOS>ATOM
      1 C1           0.0000     0.0000     0.0000 c3         1 6ZC       0.363900
      2 C2           1.5310     0.0000     0.0000 c3         1 6ZC      -0.022300
      3 C3           2.0340     0.0000     1.4470 c3         1 6ZC       0.157100
      4 C4           1.4520     1.2140     2.1790 c3         1 6ZC       0.146100
      5 C5          -0.0750     1.1670     2.0950 c3         1 6ZC       0.156100
      6 C6          -0.6610     2.4080     2.7710 c3         1 6ZC       0.226400
      7 N2           2.0200    -1.1960    -0.6880 ns         1 6ZC      -0.183900
      8 O1          -0.4770    -1.1940     0.6250 os         1 6ZC      -0.335900
      9 O4           1.8570     1.1840     3.5490 oh         1 6ZC      -0.580800
     10 O5          -0.4750     1.1380     0.7230 os         1 6ZC      -0.394600
     11 O6          -2.0870     2.3080     2.7960 oh         1 6ZC      -0.584800
     12 O1'         -6.4290    -3.2670     0.7240 o          1 6ZC      -0.455500
     13 O2'         -6.6900    -1.4940    -0.3900 o          1 6ZC      -0.455500
     14 C4'         -4.5140    -1.9810     0.3210 ca         1 6ZC      -0.492200
     15 C3'         -3.6910    -2.8560     1.0040 ca         1 6ZC       0.031500
     16 C2'         -2.3380    -2.5940     1.1070 ca         1 6ZC      -0.187500
     17 C5'         -3.9880    -0.8460    -0.2650 ca         1 6ZC       0.031500
     18 C6'         -2.6360    -0.5800    -0.1640 ca         1 6ZC      -0.187500
     19 C1'         -1.8070    -1.4530     0.5240 ca         1 6ZC       0.211100
     20 C7           2.1490    -1.1970    -2.0300 c          1 6ZC       0.573100
     21 C8           2.6530    -2.4280    -2.7390 c3         1 6ZC      -0.065100
     22 O3           3.4610     0.0730     1.4580 oh         1 6ZC      -0.578800
     23 H1          -0.3590     0.0470    -1.0210 h2         1 6ZC       0.062700
     24 H2           1.8920     0.8870    -0.5060 h1         1 6ZC       0.088700
     25 H3           1.7090    -0.9080     1.9410 h1         1 6ZC       0.025700
     26 H4           1.8110     2.1220     1.7100 h1         1 6ZC       0.026700
     27 H5          -0.4350     0.2750     2.5920 h1         1 6ZC       0.040700
     28 H6          -0.3710     3.2920     2.2180 h1         1 6ZC      -0.000800
     29 H7          -0.2870     2.4770     3.7860 h1         1 6ZC      -0.000800
     30 H8           2.2420    -2.0200    -0.1640 hn         1 6ZC       0.177500
     31 H9           2.4880     1.8660     3.7050 ho         1 6ZC       0.401000
     32 H10         -2.4420     3.0090     3.3160 ho         1 6ZC       0.392000
     33 H12         -1.6920    -3.2800     1.6430 ha         1 6ZC       0.134500
     34 H13         -4.6350    -0.1640    -0.8030 ha         1 6ZC       0.131500
     35 H14         -2.2230     0.3100    -0.6240 ha         1 6ZC       0.134500
     36 H15          1.9910    -3.2600    -2.5320 hc         1 6ZC       0.024700
     37 H16          3.6500    -2.6640    -2.3870 hc         1 6ZC       0.024700
     38 H17          2.6810    -2.2440    -3.8060 hc         1 6ZC       0.024700
     39 H18          3.8100    -0.6620     1.9340 ho         1 6ZC       0.398000
     40 H11         -4.1060    -3.7470     1.4590 ha         1 6ZC       0.131500
     41 O7           1.8610    -0.2060    -2.6670 o          1 6ZC      -0.646100
     42 N1'         -5.9630    -2.2640     0.2110 no         1 6ZC       1.054200
@<TRIPOS>BOND
     1     1     2 1   
     2     1     8 1   
     3     1    10 1   
     4     1    23 1   
     5     2     3 1   
     6     2     7 1   
     7     2    24 1   
     8     3     4 1   
     9     3    22 1   
    10     3    25 1   
    11     4     5 1   
    12     4     9 1   
    13     4    26 1   
    14     5     6 1   
    15     5    10 1   
    16     5    27 1   
    17     6    11 1   
    18     6    28 1   
    19     6    29 1   
    20     7    20 1   
    21     7    30 1   
    22     8    19 1   
    23     9    31 1   
    24    11    32 1   
    25    12    42 1   
    26    13    42 1   
    27    14    15 ar  
    28    14    17 ar  
    29    14    42 1   
    30    15    16 ar  
    31    15    40 1   
    32    16    19 ar  
    33    16    33 1   
    34    17    18 ar  
    35    17    34 1   
    36    18    19 ar  
    37    18    35 1   
    38    20    21 1   
    39    20    41 2   
    40    21    36 1   
    41    21    37 1   
    42    21    38 1   
    43    22    39 1   
@<TRIPOS>SUBSTRUCTURE
     1 6ZC         1 TEMP              0 ****  ****    0 ROOT
