@<TRIPOS>MOLECULE
molecule
   58    60     1     0     0
SMALL
bcc


@<TRIPOS>ATOM
      1 C10          0.0000     0.0000     0.0000 c3         1 6ZD       0.097100
      2 C17         -3.8270     0.0610     2.1650 cc         1 6ZD       0.263800
      3 C20         -4.5100    -2.1660     0.7360 cd         1 6ZD       0.694100
      4 C28          6.1420     1.5130     8.3550 c3         1 6ZD       0.223800
      5 O01          6.7060     3.1170     5.9220 o          1 6ZD      -0.616800
      6 S02          5.3690     3.2100     6.3970 s6         1 6ZD       1.400900
      7 C03          4.3320     1.9340     5.6300 c3         1 6ZD      -0.413800
      8 C06          2.7810     1.2270     1.8130 c3         1 6ZD       0.231400
      9 C07          1.9260     0.0000     1.4940 c3         1 6ZD       0.103100
     10 C08          1.5480     0.0000     0.0000 c3         1 6ZD       0.087100
     11 O09          2.0480    -1.1750    -0.6430 oh         1 6ZD      -0.586800
     12 O11         -0.5100    -0.8740    -1.0090 oh         1 6ZD      -0.601800
     13 C12         -0.3240    -0.5390     1.4160 c3         1 6ZD       0.112800
     14 N13         -1.6530    -0.0960     1.8450 na         1 6ZD      -0.191900
     15 C14         -1.9280     1.0000     2.6110 cd         1 6ZD       0.524400
     16 N15         -3.2130     1.0880     2.7990 nc         1 6ZD      -0.590000
     17 C16         -2.8370    -0.7010     1.5560 cd         1 6ZD      -0.054000
     18 C18         -5.2200    -0.3690     2.0130 c          1 6ZD       0.630000
     19 N19         -5.4780    -1.4730     1.2970 nc         1 6ZD      -0.664100
     20 N22         -3.2020    -1.8150     0.8440 na         1 6ZD      -0.661600
     21 O23         -6.1270     0.2660     2.5290 o          1 6ZD      -0.442100
     22 O24          0.7020     0.0490     2.2440 os         1 6ZD      -0.407600
     23 O25          5.5750     2.3150     3.1440 o          1 6ZD      -0.755500
     24 O26          3.4860     3.6220     3.6940 o          1 6ZD      -0.755500
     25 N27          5.4680     2.7610     7.9880 n7         1 6ZD      -0.911100
     26 C29          6.4260     1.5110     9.8590 c3         1 6ZD       0.102000
     27 N30          7.1000     0.2630    10.2270 ns         1 6ZD      -0.585900
     28 C31          7.4510     0.0400    11.5100 c          1 6ZD       0.644100
     29 C32          8.1440    -1.2440    11.8880 c3         1 6ZD      -0.036000
     30 O34          7.2080     0.8720    12.3580 o          1 6ZD      -0.579100
     31 O35          4.6860     4.4560     6.4260 o          1 6ZD      -0.616800
     32 H1          -0.3820     1.0060    -0.1230 h1         1 6ZD       0.063700
     33 H2           5.5060     0.6720     8.1070 h1         1 6ZD       0.045700
     34 H3           7.0750     1.4330     7.8120 h1         1 6ZD       0.045700
     35 H4           4.6940     0.9180     5.7330 h1         1 6ZD       0.071700
     36 H5           3.4720     2.0680     4.9850 h1         1 6ZD       0.071700
     37 H6           3.6480     1.2420     1.1630 h1         1 6ZD       0.052200
     38 H7           2.1970     2.1250     1.6580 h1         1 6ZD       0.052200
     39 H8           2.4680    -0.9070     1.7350 h1         1 6ZD       0.093700
     40 H9           1.9240     0.8930    -0.4840 h1         1 6ZD       0.075700
     41 H10          2.6760    -0.9300    -1.3020 ho         1 6ZD       0.421000
     42 H11         -0.7210    -0.3740    -1.7800 ho         1 6ZD       0.415000
     43 H12          0.3470    -1.3510     1.6690 h2         1 6ZD       0.200700
     44 H13         -1.1740     1.4070     1.9470 h5         1 6ZD       0.127100
     45 H14         -4.6620    -3.1190    -0.9540 hn         1 6ZD       0.481133
     46 H15         -5.8010    -3.5020     0.1530 hn         1 6ZD       0.481133
     47 H16         -2.3980    -2.3870     0.6810 hn         1 6ZD       0.472800
     48 H18          5.0570     3.3350     8.6970 hn         1 6ZD       0.446800
     49 H19          5.4930     1.5910    10.4030 h1         1 6ZD       0.060200
     50 H20          7.0620     2.3520    10.1070 h1         1 6ZD       0.060200
     51 H21          7.3240    -0.4110     9.5220 hn         1 6ZD       0.312500
     52 H22          7.5080    -2.0850    11.6400 h1         1 6ZD       0.077200
     53 H23          9.0780    -1.3230    11.3440 h1         1 6ZD       0.077200
     54 Cl1          8.4790    -1.2450    13.6600 cl         1 6ZD      -0.153400
     55 O05          3.2100     1.1670     3.1760 os         1 6ZD      -0.600200
     56 H213        -4.2730    -4.0550     0.3280 hn         1 6ZD       0.481133
     57 N21         -4.8330    -3.2860     0.0170 nz         1 6ZD      -0.741600
     58 P04          4.1310     2.3000     3.8550 p5         1 6ZD       1.161600
@<TRIPOS>BOND
     1     5     6 2
     2     4    26 1
     3     4    25 1
     4    26    27 1
     5     6     7 1
     6     6    25 1
     7     6    31 2
     8    30    28 2
     9     7    58 1
    10    27    28 1
    11    23    58 1
    12    28    29 1
    13    58    24 1
    14    58    55 1
    15    55     8 1
    16    16    15 2
    17    16     2 1
    18    15    14 1
    19    21    18 2
    20    12     1 1
    21     1    10 1
    22     1    13 1
    23     8     9 1
    24     2    18 1
    25     2    17 2
    26    10     9 1
    27    10    11 1
    28    18    19 1
    29    14    17 1
    30    14    13 1
    31    17    20 1
    32     9    22 1
    33    13    22 1
    34    19     3 2
    35    20     3 1
    36     3    57 1
    37     1    32 1
    38     4    33 1
    39     4    34 1
    40     7    35 1
    41     7    36 1
    42     8    37 1
    43     8    38 1
    44     9    39 1
    45    10    40 1
    46    11    41 1
    47    12    42 1
    48    13    43 1
    49    15    44 1
    50    57    45 1
    51    57    46 1
    52    20    47 1
    53    25    48 1
    54    26    49 1
    55    26    50 1
    56    27    51 1
    57    29    52 1
    58    29    53 1
    59    29    54 1
    60    56    57 1
@<TRIPOS>SUBSTRUCTURE
     1 6ZD         1 TEMP              0 ****  ****    0 ROOT
