@<TRIPOS>MOLECULE
molecule
   52    55     1     0     0
SMALL
bcc


@<TRIPOS>ATOM
      1 N1           0.0000     0.0000     0.0000 nh         1 6ZF      -0.829300
      2 N3          -1.9600    -0.1900    -8.4420 nb         1 6ZF      -0.656000
      3 C4          -2.0830     0.1180    -1.1940 ca         1 6ZF      -0.332300
      4 C5          -2.7660     0.1240    -2.3930 ca         1 6ZF      -0.011000
      5 C6          -2.0290     0.0160    -3.5790 cp         1 6ZF      -0.344800
      6 C7          -0.6430    -0.0930    -3.5080 ca         1 6ZF       0.490200
      7 C8          -2.7160     0.0160    -4.8920 cp         1 6ZF       0.568800
      8 C10         -2.6240    -0.0890    -7.2880 ca         1 6ZF       0.372300
      9 C13         -4.0390     0.0240    -7.2980 ca         1 6ZF       0.122000
     10 C15         -6.8090     0.3480    -4.7640 c3         1 6ZF       0.238800
     11 C17         -9.0620     0.4460    -3.6860 c3         1 6ZF      -0.074400
     12 C20         -8.6110     1.7670    -5.7570 c3         1 6ZF       0.159800
     13 C2           1.4640     0.0000     0.0000 c3         1 6ZF       0.234600
     14 C1          -0.7320     0.0000     1.2690 c3         1 6ZF       0.234600
     15 C3          -0.6950     0.0060    -1.2020 ca         1 6ZF       0.713200
     16 N2          -0.0280    -0.0940    -2.3430 nb         1 6ZF      -0.764000
     17 N7          -4.0460     0.1210    -4.9320 nb         1 6ZF      -0.794000
     18 C14         -4.7220     0.1290    -6.0620 ca         1 6ZF       0.689900
     19 N4          -4.6900     0.0280    -8.4610 nb         1 6ZF      -0.631000
     20 C12         -4.0160    -0.0720    -9.5850 ca         1 6ZF       0.265900
     21 C11         -2.6250    -0.1830    -9.5770 ca         1 6ZF       0.330900
     22 C9          -1.9650    -0.0910    -6.0470 ca         1 6ZF      -0.366600
     23 N5          -6.1010     0.2400    -6.0420 nu         1 6ZF      -0.890900
     24 C16         -8.3120     0.4580    -5.0210 c3         1 6ZF      -0.089700
     25 N6         -10.0570     1.8830    -5.9850 n7         1 6ZF      -0.819200
     26 C19        -10.7940     1.9210    -4.7150 c3         1 6ZF       0.156800
     27 C18        -10.5600     0.6160    -3.9490 c3         1 6ZF      -0.077400
     28 H1          -2.6210     0.1990    -0.2570 ha         1 6ZF       0.138000
     29 H2          -3.8450     0.2100    -2.4160 ha         1 6ZF       0.156000
     30 H3          -0.0640    -0.1760    -4.4200 h4         1 6ZF       0.029100
     31 H4          -6.6080    -0.5310    -4.1650 h1         1 6ZF       0.053200
     32 H5          -6.4670     1.2300    -4.2360 h1         1 6ZF       0.053200
     33 H6          -8.7090     1.2620    -3.0670 hc         1 6ZF       0.044200
     34 H7          -8.8890    -0.4980    -3.1830 hc         1 6ZF       0.044200
     35 H8          -8.2740     2.6030    -5.1550 h1         1 6ZF       0.035200
     36 H9          -8.0950     1.7700    -6.7090 h1         1 6ZF       0.035200
     37 H10          1.8250     0.0730     1.0190 h1         1 6ZF       0.039033
     38 H11          1.8250     0.8460    -0.5730 h1         1 6ZF       0.039033
     39 H12          1.8250    -0.9190    -0.4460 h1         1 6ZF       0.039033
     40 H13         -0.0310    -0.0800     2.0900 h1         1 6ZF       0.039033
     41 H14         -1.4140    -0.8420     1.2920 h1         1 6ZF       0.039033
     42 H15         -1.2940     0.9220     1.3610 h1         1 6ZF       0.039033
     43 H16         -4.5460    -0.0680   -10.5300 h4         1 6ZF       0.030100
     44 H17         -2.0880    -0.2640   -10.5140 h4         1 6ZF       0.031100
     45 H18         -0.8880     0.0240    -6.0060 ha         1 6ZF       0.155000
     46 H19         -6.6160     0.2420    -6.9010 hn         1 6ZF       0.467800
     47 H20         -8.6420    -0.3780    -5.6260 hc         1 6ZF       0.071700
     48 H21        -10.2470     2.7160    -6.5060 hn         1 6ZF       0.355800
     49 H23        -10.4420     2.7550    -4.1200 h1         1 6ZF       0.032200
     50 H24        -11.8520     2.0350    -4.9170 h1         1 6ZF       0.032200
     51 H25        -10.9200    -0.2180    -4.5400 hc         1 6ZF       0.050200
     52 H26        -11.0900     0.6530    -3.0050 hc         1 6ZF       0.050200
@<TRIPOS>BOND
     1    13     1 1   
     2     3     4 ar  
     3     3    15 ar  
     4     1    15 1   
     5     1    14 1   
     6     4     5 ar  
     7    15    16 ar  
     8     5     6 ar  
     9     5     7 1   
    10    16     6 ar  
    11    22     7 ar  
    12    22     8 ar  
    13     7    17 ar  
    14     2     8 ar  
    15     2    21 ar  
    16     8     9 ar  
    17    21    20 ar  
    18    17    18 ar  
    19     9    18 ar  
    20     9    19 ar  
    21    18    23 1   
    22    20    19 ar  
    23    23    10 1   
    24    10    24 1   
    25    24    11 1   
    26    24    12 1   
    27    11    27 1   
    28    12    25 1   
    29    27    26 1   
    30    25    26 1   
    31     3    28 1   
    32     4    29 1   
    33     6    30 1   
    34    10    31 1   
    35    10    32 1   
    36    11    33 1   
    37    11    34 1   
    38    12    35 1   
    39    12    36 1   
    40    13    37 1   
    41    13    38 1   
    42    13    39 1   
    43    14    40 1   
    44    14    41 1   
    45    14    42 1   
    46    20    43 1   
    47    21    44 1   
    48    22    45 1   
    49    23    46 1   
    50    24    47 1   
    51    25    48 1   
    52    26    49 1   
    53    26    50 1   
    54    27    51 1   
    55    27    52 1   
@<TRIPOS>SUBSTRUCTURE
     1 6ZF         1 TEMP              0 ****  ****    0 ROOT
