@<TRIPOS>MOLECULE
molecule
   45    47     1     0     0
SMALL
bcc


@<TRIPOS>ATOM
      1 C10          0.0000     0.0000     0.0000 ca         1 6ZG       0.364300
      2 C13          1.4030     0.0010     2.2890 ca         1 6ZG       0.287900
      3 C15          1.4190     0.0000     0.0000 ca         1 6ZG       0.129000
      4 C21          7.9430    -0.0050    -3.4040 c3         1 6ZG       0.090800
      5 C02         -1.9080    -0.0040    -6.1550 ca         1 6ZG      -0.061300
      6 C03         -0.5260    -0.0040    -6.1080 ca         1 6ZG      -0.136000
      7 C04          0.1260    -0.0030    -4.8910 ca         1 6ZG      -0.093500
      8 C05         -0.6120    -0.0020    -3.7090 cp         1 6ZG      -0.163500
      9 C06         -2.0050    -0.0020    -3.7630 ca         1 6ZG      -0.093500
     10 C07         -2.6460     0.0020    -4.9850 ca         1 6ZG      -0.136000
     11 C08          0.0820    -0.0010    -2.3980 cp         1 6ZG       0.542800
     12 C09         -0.6670    -0.0010    -1.2380 ca         1 6ZG      -0.330600
     13 N11         -0.6640    -0.0050     1.1580 nb         1 6ZG      -0.645000
     14 C12          0.0080    -0.0040     2.2900 ca         1 6ZG       0.337900
     15 N14          2.0770     0.0000     1.1590 nb         1 6ZG      -0.646000
     16 C16          2.0990    -0.0010    -1.2420 ca         1 6ZG       0.679900
     17 N17          3.4820    -0.0020    -1.2720 nu         1 6ZG      -0.907900
     18 C18          4.1870    -0.0030    -2.5570 c3         1 6ZG       0.249800
     19 C19          5.6970    -0.0030    -2.3100 c3         1 6ZG      -0.098400
     20 N22          8.6500    -0.0060    -4.6920 nz         1 6ZG      -0.810600
     21 N23          1.4170    -0.0020    -2.3680 nb         1 6ZG      -0.786000
     22 H1           1.9770     0.0070     3.2080 h4         1 6ZG       0.036100
     23 H2           6.1600     0.8810    -4.2140 hc         1 6ZG       0.069700
     24 H3           6.1580    -0.8880    -4.2140 hc         1 6ZG       0.069700
     25 H4           8.2380    -0.8750    -2.8300 hx         1 6ZG       0.114200
     26 H5           8.1950     0.8940    -2.8540 hx         1 6ZG       0.114200
     27 H6          -3.6580     0.2420    -7.3420 hc         1 6ZG       0.048367
     28 H7          -2.1550     0.7300    -8.1380 hc         1 6ZG       0.048367
     29 H8          -2.5330    -0.9870    -7.9370 hc         1 6ZG       0.048367
     30 H9           0.0470    -0.0050    -7.0280 ha         1 6ZG       0.134500
     31 H10          1.2090    -0.0030    -4.8550 ha         1 6ZG       0.138500
     32 H11         -2.5830     0.0010    -2.8470 ha         1 6ZG       0.138500
     33 H12         -3.7280     0.0020    -5.0280 ha         1 6ZG       0.134500
     34 H13         -1.7310    -0.2040    -1.2810 ha         1 6ZG       0.166000
     35 H14         -0.6040    -0.0100     3.1840 h4         1 6ZG       0.043100
     36 H15          4.0020    -0.0020    -0.4170 hn         1 6ZG       0.466800
     37 H16          3.9130    -0.8880    -3.1180 h1         1 6ZG       0.056700
     38 H17          3.9130     0.8810    -3.1190 h1         1 6ZG       0.056700
     39 H18          5.9710     0.8820    -1.7480 hc         1 6ZG       0.062700
     40 H19          5.9710    -0.8870    -1.7470 hc         1 6ZG       0.062700
     41 H20          8.4160    -0.8360    -5.2000 hn         1 6ZG       0.457800
     42 H21          8.3780     0.7980    -5.2230 hn         1 6ZG       0.457800
     43 H223         9.6370     0.0190    -4.5310 hn         1 6ZG       0.457800
     44 C01         -2.6130    -0.0050    -7.4870 c3         1 6ZG      -0.052800
     45 C20          6.4330    -0.0040    -3.6520 c3         1 6ZG      -0.107400
@<TRIPOS>BOND
     1     2    14 ar
     2     2    15 ar
     3    14    13 ar
     4    15     3 ar
     5    13     1 ar
     6     3     1 ar
     7     3    16 ar
     8     1    12 ar
     9    17    16 1
    10    17    18 1
    11    16    21 ar
    12    12    11 ar
    13    18    19 1
    14    45    19 1
    15    45     4 1
    16    21    11 ar
    17    20     4 1
    18    11     8 1
    19     8     7 ar
    20     8     9 ar
    21     7     6 ar
    22     9    10 ar
    23     6     5 ar
    24    10     5 ar
    25     5    44 1
    26     2    22 1
    27    45    23 1
    28    45    24 1
    29     4    25 1
    30     4    26 1
    31    44    27 1
    32    44    28 1
    33    44    29 1
    34     6    30 1
    35     7    31 1
    36     9    32 1
    37    10    33 1
    38    12    34 1
    39    14    35 1
    40    17    36 1
    41    18    37 1
    42    18    38 1
    43    19    39 1
    44    19    40 1
    45    20    41 1
    46    20    42 1
    47    43    20 1
@<TRIPOS>SUBSTRUCTURE
     1 6ZG         1 TEMP              0 ****  ****    0 ROOT
