@<TRIPOS>MOLECULE
6ZG
   45    47     1     0     0
SMALL
bcc


@<TRIPOS>ATOM
      1 C10          0.0000     0.0000     0.0000 ca         1 6ZG       0.333300
      2 C13          1.4030     0.0010     2.2890 ca         1 6ZG       0.275900
      3 C15          1.4190     0.0000     0.0000 ca         1 6ZG       0.094000
      4 C21          7.9430    -0.0050    -3.4040 c3         1 6ZG      -0.054200
      5 C02         -1.9080    -0.0040    -6.1550 ca         1 6ZG      -0.068300
      6 C03         -0.5260    -0.0040    -6.1080 ca         1 6ZG      -0.109000
      7 C04          0.1260    -0.0030    -4.8910 ca         1 6ZG      -0.071500
      8 C05         -0.6120    -0.0020    -3.7090 cp         1 6ZG      -0.174500
      9 C06         -2.0050    -0.0020    -3.7630 ca         1 6ZG      -0.071500
     10 C07         -2.6460     0.0020    -4.9850 ca         1 6ZG      -0.109000
     11 C08          0.0820    -0.0010    -2.3980 cp         1 6ZG       0.507800
     12 C09         -0.6670    -0.0010    -1.2380 ca         1 6ZG      -0.316600
     13 N11         -0.6640    -0.0050     1.1580 nb         1 6ZG      -0.546000
     14 C12          0.0080    -0.0040     2.2900 ca         1 6ZG       0.327900
     15 N14          2.0770     0.0000     1.1590 nb         1 6ZG      -0.540000
     16 C16          2.0990    -0.0010    -1.2420 ca         1 6ZG       0.483900
     17 N17          3.4820    -0.0020    -1.2720 nu         1 6ZG      -0.501900
     18 C18          4.1870    -0.0030    -2.5570 c3         1 6ZG       0.172800
     19 C19          5.6970    -0.0030    -2.3100 c3         1 6ZG      -0.031400
     20 N22          8.6500    -0.0060    -4.6920 nz         1 6ZG       0.087400
     21 N23          1.4170    -0.0020    -2.3680 nb         1 6ZG      -0.674000
     22 H1           1.9770     0.0070     3.2080 h4         1 6ZG      -0.006900
     23 H2           6.1600     0.8810    -4.2140 hc         1 6ZG       0.037200
     24 H3           6.1580    -0.8880    -4.2140 hc         1 6ZG       0.037200
     25 H4           8.2380    -0.8750    -2.8300 hx         1 6ZG       0.086700
     26 H5           8.1950     0.8940    -2.8540 hx         1 6ZG       0.086700
     27 H6          -3.6580     0.2420    -7.3420 hc         1 6ZG       0.010700
     28 H7          -2.1550     0.7300    -8.1380 hc         1 6ZG       0.010700
     29 H8          -2.5330    -0.9870    -7.9370 hc         1 6ZG       0.010700
     30 H9           0.0470    -0.0050    -7.0280 ha         1 6ZG       0.108000
     31 H10          1.2090    -0.0030    -4.8550 ha         1 6ZG       0.112500
     32 H11         -2.5830     0.0010    -2.8470 ha         1 6ZG       0.112500
     33 H12         -3.7280     0.0020    -5.0280 ha         1 6ZG       0.108000
     34 H13         -1.7310    -0.2040    -1.2810 ha         1 6ZG       0.145000
     35 H14         -0.6040    -0.0100     3.1840 h4         1 6ZG      -0.003900
     36 H15          4.0020    -0.0020    -0.4170 hn         1 6ZG       0.313800
     37 H16          3.9130    -0.8880    -3.1180 h1         1 6ZG       0.027200
     38 H17          3.9130     0.8810    -3.1190 h1         1 6ZG       0.027200
     39 H18          5.9710     0.8820    -1.7480 hc         1 6ZG       0.030700
     40 H19          5.9710    -0.8870    -1.7470 hc         1 6ZG       0.030700
     41 H20          8.4160    -0.8360    -5.2000 hn         1 6ZG       0.224133
     42 H21          8.3780     0.7980    -5.2230 hn         1 6ZG       0.224133
     43 H223         9.6370     0.0190    -4.5310 hn         1 6ZG       0.224133
     44 C01         -2.6130    -0.0050    -7.4870 c3         1 6ZG       0.060200
     45 C20          6.4330    -0.0040    -3.6520 c3         1 6ZG      -0.030400
@<TRIPOS>BOND
     1     1     3 ar  
     2     1    12 ar  
     3     1    13 ar  
     4     2    14 ar  
     5     2    15 ar  
     6     2    22 1   
     7     3    15 ar  
     8     3    16 ar  
     9     4    20 1   
    10     4    25 1   
    11     4    26 1   
    12     4    45 1   
    13     5     6 ar  
    14     5    10 ar  
    15     5    44 1   
    16     6     7 ar  
    17     6    30 1   
    18     7     8 ar  
    19     7    31 1   
    20     8     9 ar  
    21     8    11 1   
    22     9    10 ar  
    23     9    32 1   
    24    10    33 1   
    25    11    12 ar  
    26    11    21 ar  
    27    12    34 1   
    28    13    14 ar  
    29    14    35 1   
    30    16    17 1   
    31    16    21 ar  
    32    17    18 1   
    33    17    36 1   
    34    18    19 1   
    35    18    37 1   
    36    18    38 1   
    37    19    39 1   
    38    19    40 1   
    39    19    45 1   
    40    20    41 1   
    41    20    42 1   
    42    20    43 1   
    43    23    45 1   
    44    24    45 1   
    45    27    44 1   
    46    28    44 1   
    47    29    44 1   
@<TRIPOS>SUBSTRUCTURE
     1 6ZG         1 TEMP              0 ****  ****    0 ROOT
