@<TRIPOS>MOLECULE
6ZH
   44    48     1     0     0
SMALL
bcc


@<TRIPOS>ATOM
      1 C6'          0.0000     0.0000     0.0000 c2         1 6ZH      -0.006000
      2 C5'          1.3100     0.0000     0.0000 c2         1 6ZH      -0.137000
      3 C4'          2.0640     0.0000     1.3050 DU         1 6ZH       0.111000
      4 O4'          1.1590    -0.2250     2.4080 os         1 6ZH      -0.258000
      5 C3'          3.0520    -1.1860     1.3570 c3         1 6ZH      -0.005000
      6 O3'          4.3700    -0.7550     1.0120 oh         1 6ZH      -0.278000
      7 C2'          3.0020    -1.6540     2.8290 c3         1 6ZH       0.027000
      8 O2'          4.2880    -1.5250     3.4380 oh         1 6ZH      -0.253000
      9 C1'          1.9900    -0.6940     3.4920 c3         1 6ZH       0.044000
     10 N9           1.1820    -1.4100     4.4820 na         1 6ZH       0.270000
     11 C8          -0.0460    -1.9640     4.2730 c2         1 6ZH      -0.214000
     12 N7          -0.4750    -2.5220     5.3670 n2         1 6ZH      -0.037000
     13 C5           0.4480    -2.3630     6.3460 c2         1 6ZH      -0.195000
     14 C6           0.5310    -2.7430     7.6960 c2         1 6ZH       0.065000
     15 N6          -0.4950    -3.4490     8.2980 nv         1 6ZH       0.042000
     16 N1           1.6190    -2.4080     8.3820 n2         1 6ZH      -0.097000
     17 C2           2.6040    -1.7340     7.8160 c2         1 6ZH       0.007000
     18 N3           2.5690    -1.3570     6.5550 n2         1 6ZH      -0.085000
     19 C4           1.5240    -1.6510     5.7890 c2         1 6ZH      -0.144000
     20 C7'         -0.7530    -0.0070    -1.3040 DU         1 6ZH       0.017000
     21 N8'         -1.6790    -1.1420    -1.3280 n7         1 6ZH       0.190000
     22 C9'         -2.4750    -1.3530    -2.4210 c2         1 6ZH      -0.433000
     23 N10         -2.4080    -0.5260    -3.4630 n8         1 6ZH       0.328000
     24 N11         -3.3170    -2.3850    -2.4420 nz         1 6ZH       0.949000
     25 H1          -0.1480     0.8740    -0.6230 DU         1 6ZH      -0.028000
     26 H2           1.4580     0.8770     0.6180 DU         1 6ZH       0.151000
     27 H3           2.5940     0.9350     1.4410 ha         1 6ZH       0.106000
     28 H4           2.7220    -1.9800     0.6980 h1         1 6ZH       0.064000
     29 H5           4.6640    -1.2230     0.2480 ho         1 6ZH       0.213000
     30 H6           2.6470    -2.6760     2.8880 h1         1 6ZH       0.104000
     31 H7           4.5450    -0.6180     3.4420 ho         1 6ZH       0.209000
     32 H8           2.5090     0.1380     3.9520 h2         1 6ZH       0.109000
     33 H9          -0.5860    -1.9420     3.3340 h5         1 6ZH       0.143000
     34 H11         -1.2220    -2.9600     8.7820 hn         1 6ZH       0.084000
     35 H10         -0.4950    -4.4490     8.2740 hn         1 6ZH       0.084000
     36 H12          3.4730    -1.4820     8.4120 h5         1 6ZH       0.152000
     37 H13         -0.0520    -0.0960    -2.1260 ha         1 6ZH       0.096500
     38 H14         -1.3110     0.9160    -1.4040 ha         1 6ZH       0.096500
     39 H15         -1.7560    -1.7410    -0.5310 hn         1 6ZH       0.143000
     40 H16         -1.7760     0.2490    -3.4470 hn         1 6ZH       0.117500
     41 H18         -2.8690    -3.1890    -2.0500 hn         1 6ZH       0.043333
     42 H17         -4.1320    -2.1620    -1.9060 hn         1 6ZH       0.043333
     43 H19         -2.9900    -0.6810    -4.2620 hn         1 6ZH       0.117500
     44 H113        -3.5820    -2.5790    -3.3870 hn         1 6ZH       0.043333
@<TRIPOS>BOND
     1     1     2 1   
     2     1    20 1   
     3     1    25 1   
     4     2     3 1   
     5     2    26 1   
     6     3     4 1   
     7     3     5 1   
     8     3    26 1   
     9     3    27 1   
    10     4     9 1   
    11     5     6 1   
    12     5     7 1   
    13     5    28 1   
    14     6    29 1   
    15     7     8 1   
    16     7     9 1   
    17     7    30 1   
    18     8    31 1   
    19     9    10 1   
    20     9    32 1   
    21    10    11 1   
    22    10    19 1   
    23    11    12 1   
    24    11    33 1   
    25    12    13 1   
    26    13    14 1   
    27    13    19 1   
    28    14    15 1   
    29    14    16 1   
    30    15    34 1   
    31    15    35 1   
    32    16    17 1   
    33    17    18 1   
    34    17    36 1   
    35    18    19 1   
    36    20    21 1   
    37    20    25 1   
    38    20    37 1   
    39    20    38 1   
    40    21    22 1   
    41    21    39 1   
    42    22    23 1   
    43    22    24 1   
    44    23    40 1   
    45    23    43 1   
    46    24    41 1   
    47    24    42 1   
    48    24    44 1   
@<TRIPOS>SUBSTRUCTURE
     1 6ZH         1 TEMP              0 ****  ****    0 ROOT
