@<TRIPOS>MOLECULE
molecule
   44    46     1     0     0
SMALL
bcc


@<TRIPOS>ATOM
      1 C6'          0.0000     0.0000     0.0000 c2         1 6ZH      -0.278200
      2 C5'          1.3100     0.0000     0.0000 c2         1 6ZH      -0.028200
      3 C4'          2.0640     0.0000     1.3050 c3         1 6ZH       0.143300
      4 O4'          1.1590    -0.2250     2.4080 os         1 6ZH      -0.437600
      5 C3'          3.0520    -1.1860     1.3570 c3         1 6ZH       0.097100
      6 O3'          4.3700    -0.7550     1.0120 oh         1 6ZH      -0.551800
      7 C2'          3.0020    -1.6540     2.8290 c3         1 6ZH       0.097100
      8 O2'          4.2880    -1.5250     3.4380 oh         1 6ZH      -0.541800
      9 C1'          1.9900    -0.6940     3.4920 c3         1 6ZH       0.266800
     10 N9           1.1820    -1.4100     4.4820 na         1 6ZH      -0.265000
     11 C8          -0.0460    -1.9640     4.2730 cc         1 6ZH       0.392700
     12 N7          -0.4750    -2.5220     5.3670 nd         1 6ZH      -0.560100
     13 C5           0.4480    -2.3630     6.3460 ca         1 6ZH      -0.206200
     14 C6           0.5310    -2.7430     7.6960 ca         1 6ZH       0.797200
     15 N6          -0.4950    -3.4490     8.2980 nv         1 6ZH      -0.992500
     16 N1           1.6190    -2.4080     8.3820 nb         1 6ZH      -0.797000
     17 C2           2.6040    -1.7340     7.8160 ca         1 6ZH       0.760900
     18 N3           2.5690    -1.3570     6.5550 nb         1 6ZH      -0.783000
     19 C4           1.5240    -1.6510     5.7890 ca         1 6ZH       0.484800
     20 C7'         -0.7530    -0.0070    -1.3040 c3         1 6ZH       0.044500
     21 N8'         -1.6790    -1.1420    -1.3280 nu         1 6ZH      -0.286100
     22 C9'         -2.4750    -1.3530    -2.4210 c2         1 6ZH       0.436700
     23 N10         -2.4080    -0.5260    -3.4630 nv         1 6ZH      -0.410200
     24 N11         -3.3170    -2.3850    -2.4420 nz         1 6ZH      -0.781600
     25 H1          -0.5420     0.0000     0.9380 ha         1 6ZH       0.189000
     26 H2           1.8510    -0.0050    -0.9380 ha         1 6ZH       0.146000
     27 H3           2.5940     0.9350     1.4410 h1         1 6ZH       0.126700
     28 H4           2.7220    -1.9800     0.6980 h1         1 6ZH       0.032700
     29 H5           4.7100    -1.3030     0.3240 ho         1 6ZH       0.414000
     30 H6           2.6470    -2.6760     2.8880 h1         1 6ZH       0.062700
     31 H7           4.6980    -2.3720     3.4880 ho         1 6ZH       0.423000
     32 H8           2.5090     0.1380     3.9520 h2         1 6ZH       0.130700
     33 H9          -0.5870    -1.9410     3.3340 h5         1 6ZH       0.051800
     34 H11         -1.0010    -4.1380     7.7770 hn         1 6ZH       0.456800
     35 H10         -0.7400    -3.2610     9.2500 hn         1 6ZH       0.456800
     36 H12          3.4730    -1.4820     8.4120 h5         1 6ZH       0.080100
     37 H13         -0.0520    -0.0960    -2.1260 h1         1 6ZH       0.099200
     38 H14         -1.3110     0.9160    -1.4040 h1         1 6ZH       0.099200
     39 H15         -1.7320    -1.7620    -0.5440 hn         1 6ZH       0.353700
     40 H16         -2.9900    -0.6810    -4.2620 hn         1 6ZH       0.367700
     41 H18         -2.8590    -3.1800    -2.8420 hn         1 6ZH       0.514467
     42 H17         -3.6050    -2.6000    -1.5090 hn         1 6ZH       0.514467
     43 H19         -1.7760     0.2490    -3.4470 hn         1 6ZH       0.367700
     44 H113        -4.1190    -2.1500    -2.9930 hn         1 6ZH       0.514467
@<TRIPOS>BOND
     1    15    14 1   
     2    14    13 ar  
     3    14    16 ar  
     4    12    13 1   
     5    12    11 2   
     6    13    19 ar  
     7    16    17 ar  
     8    11    10 1   
     9    19    10 1   
    10    19    18 ar  
    11    17    18 ar  
    12    10     9 1   
    13    20    21 1   
    14    20     1 1   
    15     9     7 1   
    16     9     4 1   
    17     7     8 1   
    18     7     5 1   
    19     2     1 2   
    20     2     3 1   
    21    21    22 2   
    22     4     3 1   
    23     3     5 1   
    24    22    23 1   
    25    22    24 1   
    26     5     6 1   
    27     1    25 1   
    28     2    26 1   
    29     3    27 1   
    30     5    28 1   
    31     6    29 1   
    32     7    30 1   
    33     8    31 1   
    34     9    32 1   
    35    11    33 1   
    36    15    34 1   
    37    15    35 1   
    38    17    36 1   
    39    20    37 1   
    40    20    38 1   
    41    21    39 1   
    42    23    40 1   
    43    24    41 1   
    44    24    42 1   
    45    23    43 1   
    46    44    24 1   
@<TRIPOS>SUBSTRUCTURE
     1 6ZH         1 TEMP              0 ****  ****    0 ROOT
