@<TRIPOS>MOLECULE
6ZK
   53    57     1     0     0
SMALL
bcc


@<TRIPOS>ATOM
      1 O32          0.0000     0.0000     0.0000 o          1 6ZK      -0.442100
      2 C31          1.2160     0.0000     0.0000 c          1 6ZK       0.357700
      3 N33          1.8900     0.0000     1.1670 nz         1 6ZK       0.199600
      4 C28          1.9540    -0.0070    -1.2800 ca         1 6ZK      -0.265600
      5 C29          3.3520    -0.0170    -1.2800 ca         1 6ZK      -0.019000
      6 C30          4.0390    -0.0290    -2.4720 ca         1 6ZK      -0.108500
      7 C27          1.2560    -0.0070    -2.4900 ca         1 6ZK      -0.019000
      8 C26          1.9450    -0.0130    -3.6810 ca         1 6ZK      -0.108500
      9 C25          3.3400    -0.0290    -3.6800 cp         1 6ZK       0.096000
     10 C22          4.0810    -0.0400    -4.9640 cp         1 6ZK      -0.100000
     11 C21          3.3830    -0.0400    -6.1720 ca         1 6ZK      -0.077000
     12 C20          4.0720    -0.0510    -7.3650 ca         1 6ZK      -0.073000
     13 C23          5.4760    -0.0460    -4.9650 ca         1 6ZK      -0.077000
     14 C24          6.1650    -0.0560    -6.1570 ca         1 6ZK      -0.073000
     15 C19          5.4670    -0.0620    -7.3650 ca         1 6ZK      -0.104500
     16 C3           6.2080    -0.0730    -8.6480 cc         1 6ZK       0.486800
     17 N4           7.5320    -0.0790    -8.6470 nd         1 6ZK      -0.588000
     18 C5           8.2200    -0.0900    -9.7940 cd         1 6ZK       0.255500
     19 C9           9.5820    -0.0960   -10.0700 cc         1 6ZK      -0.261900
     20 Br1         10.9800    -0.0940    -8.7960 br         1 6ZK      -0.036700
     21 C2           5.5020    -0.0850    -9.8650 cc         1 6ZK      -0.420300
     22 C1           6.1990    -0.1020   -11.0400 cd         1 6ZK       0.022300
     23 N6           7.5690    -0.0960   -11.0020 na         1 6ZK       0.471200
     24 N7           8.5420    -0.1090   -12.0080 nd         1 6ZK      -0.737100
     25 C8           9.7310    -0.1070   -11.4510 cc         1 6ZK       0.526500
     26 N11          5.5320    -0.1080   -12.2470 nu         1 6ZK      -0.343600
     27 C12          4.0680    -0.1150   -12.2760 c3         1 6ZK       0.231100
     28 C13          3.5930    -0.1210   -13.7060 ca         1 6ZK      -0.241600
     29 C18          3.3760    -1.3200   -14.3680 ca         1 6ZK      -0.049000
     30 C17          2.9390    -1.2780   -15.6840 ca         1 6ZK      -0.217300
     31 C16          2.7350    -0.0510   -16.2870 ca         1 6ZK       0.427200
     32 N15          2.9520     1.0700   -15.6260 nb         1 6ZK      -0.601000
     33 C14          3.3620     1.0670   -14.3730 ca         1 6ZK       0.413200
     34 H1           1.2400     0.0070     1.9280 hn         1 6ZK       0.245467
     35 H2           2.4710     0.8140     1.2170 hn         1 6ZK       0.245467
     36 H3           3.8940    -0.0170    -0.3420 ha         1 6ZK       0.104500
     37 H4           5.1220    -0.0400    -2.4730 ha         1 6ZK       0.139000
     38 H5           0.1730     0.0060    -2.4900 ha         1 6ZK       0.104500
     39 H6           1.4040    -0.0130    -4.6190 ha         1 6ZK       0.139000
     40 H7           2.3000    -0.0320    -6.1720 ha         1 6ZK       0.108500
     41 H8           3.5300    -0.0530    -8.3030 ha         1 6ZK       0.133500
     42 H9           6.0180    -0.0420    -4.0270 ha         1 6ZK       0.108500
     43 H10          7.2480    -0.0630    -6.1570 ha         1 6ZK       0.133500
     44 H11          4.7090    -0.8210    -9.8080 ha         1 6ZK       0.141000
     45 H12         10.6750    -0.1130   -11.9820 h4         1 6ZK       0.024800
     46 H13          6.0490    -0.1000   -13.1040 hn         1 6ZK       0.320800
     47 H14          3.6930     0.7700   -11.7760 h1         1 6ZK       0.027700
     48 H15          3.7000    -0.9990   -11.7700 h1         1 6ZK       0.027700
     49 H16          3.7590    -2.2440   -13.9540 ha         1 6ZK       0.113000
     50 H17          2.6000    -2.1840   -16.1710 ha         1 6ZK       0.121000
     51 H18          2.3930    -0.0090   -17.3140 h4         1 6ZK      -0.013900
     52 H19          3.3500     2.1190   -14.1140 h4         1 6ZK       0.003100
     53 H333         2.4720    -0.8130     1.2160 hn         1 6ZK       0.245467
@<TRIPOS>BOND
     1     1     2 2   
     2     2     3 1   
     3     2     4 1   
     4     3    34 1   
     5     3    35 1   
     6     3    53 1   
     7     4     5 ar  
     8     4     7 ar  
     9     5     6 ar  
    10     5    36 1   
    11     6     9 ar  
    12     6    37 1   
    13     7     8 ar  
    14     7    38 1   
    15     8     9 ar  
    16     8    39 1   
    17     9    10 1   
    18    10    11 ar  
    19    10    13 ar  
    20    11    12 ar  
    21    11    40 1   
    22    12    15 ar  
    23    12    41 1   
    24    13    14 ar  
    25    13    42 1   
    26    14    15 ar  
    27    14    43 1   
    28    15    16 1   
    29    16    17 2   
    30    16    21 1   
    31    17    18 1   
    32    18    19 2   
    33    18    23 1   
    34    19    20 1   
    35    19    25 1   
    36    21    22 2   
    37    21    44 1   
    38    22    23 1   
    39    22    26 1   
    40    23    24 1   
    41    24    25 2   
    42    25    45 1   
    43    26    27 1   
    44    26    46 1   
    45    27    28 1   
    46    27    47 1   
    47    27    48 1   
    48    28    29 ar  
    49    28    33 ar  
    50    29    30 ar  
    51    29    49 1   
    52    30    31 ar  
    53    30    50 1   
    54    31    32 ar  
    55    31    51 1   
    56    32    33 ar  
    57    33    52 1   
@<TRIPOS>SUBSTRUCTURE
     1 6ZK         1 TEMP              0 ****  ****    0 ROOT
