@<TRIPOS>MOLECULE
molecule
   53    57     1     0     0
SMALL
bcc


@<TRIPOS>ATOM
      1 O32          0.0000     0.0000     0.0000 o          1 6ZK      -0.429100
      2 C31          1.2160     0.0000     0.0000 c          1 6ZK       0.506700
      3 N33          1.8900     0.0000     1.1670 nz         1 6ZK      -0.677400
      4 C28          1.9540    -0.0070    -1.2800 ca         1 6ZK      -0.236600
      5 C29          3.3520    -0.0170    -1.2800 ca         1 6ZK      -0.058500
      6 C30          4.0390    -0.0290    -2.4720 ca         1 6ZK      -0.126500
      7 C27          1.2560    -0.0070    -2.4900 ca         1 6ZK      -0.058500
      8 C26          1.9450    -0.0130    -3.6810 ca         1 6ZK      -0.126500
      9 C25          3.3400    -0.0290    -3.6800 cp         1 6ZK       0.074000
     10 C22          4.0810    -0.0400    -4.9640 cp         1 6ZK      -0.084000
     11 C21          3.3830    -0.0400    -6.1720 ca         1 6ZK      -0.105500
     12 C20          4.0720    -0.0510    -7.3650 ca         1 6ZK      -0.091500
     13 C23          5.4760    -0.0460    -4.9650 ca         1 6ZK      -0.105500
     14 C24          6.1650    -0.0560    -6.1570 ca         1 6ZK      -0.091500
     15 C19          5.4670    -0.0620    -7.3650 ca         1 6ZK      -0.107500
     16 C3           6.2080    -0.0730    -8.6480 cc         1 6ZK       0.549800
     17 N4           7.5320    -0.0790    -8.6470 nc         1 6ZK      -0.718000
     18 C5           8.2200    -0.0900    -9.7940 cc         1 6ZK       0.466500
     19 C9           9.5820    -0.0960   -10.0700 cd         1 6ZK      -0.279900
     20 Br1         10.9800    -0.0940    -8.7960 br         1 6ZK      -0.029700
     21 C2           5.5020    -0.0850    -9.8650 cc         1 6ZK      -0.442300
     22 C1           6.1990    -0.1020   -11.0400 cd         1 6ZK       0.352300
     23 N6           7.5690    -0.0960   -11.0020 na         1 6ZK      -0.007800
     24 N7           8.5420    -0.1090   -12.0080 nc         1 6ZK      -0.575100
     25 C8           9.7310    -0.1070   -11.4510 cd         1 6ZK       0.459500
     26 N11          5.5320    -0.1080   -12.2470 nu         1 6ZK      -0.775600
     27 C12          4.0680    -0.1150   -12.2760 c3         1 6ZK       0.293100
     28 C13          3.5930    -0.1210   -13.7060 ca         1 6ZK      -0.242600
     29 C18          3.3760    -1.3200   -14.3680 ca         1 6ZK      -0.074000
     30 C17          2.9390    -1.2780   -15.6840 ca         1 6ZK      -0.251300
     31 C16          2.7350    -0.0510   -16.2870 ca         1 6ZK       0.431200
     32 N15          2.9520     1.0700   -15.6260 nb         1 6ZK      -0.695000
     33 C14          3.3620     1.0670   -14.3730 ca         1 6ZK       0.427200
     34 H1           1.2400     0.0070     1.9280 hn         1 6ZK       0.476467
     35 H2           2.4710     0.8140     1.2170 hn         1 6ZK       0.476467
     36 H3           3.8940    -0.0170    -0.3420 ha         1 6ZK       0.137500
     37 H4           5.1220    -0.0400    -2.4730 ha         1 6ZK       0.167000
     38 H5           0.1730     0.0060    -2.4900 ha         1 6ZK       0.137500
     39 H6           1.4040    -0.0130    -4.6190 ha         1 6ZK       0.167000
     40 H7           2.3000    -0.0320    -6.1720 ha         1 6ZK       0.135000
     41 H8           3.5300    -0.0530    -8.3030 ha         1 6ZK       0.165000
     42 H9           6.0180    -0.0420    -4.0270 ha         1 6ZK       0.135000
     43 H10          7.2480    -0.0630    -6.1570 ha         1 6ZK       0.165000
     44 H11          4.7090    -0.8210    -9.8080 ha         1 6ZK       0.153000
     45 H12         10.6750    -0.1130   -11.9820 h4         1 6ZK       0.078800
     46 H13          6.0490    -0.1000   -13.1040 hn         1 6ZK       0.473800
     47 H14          3.6930     0.7700   -11.7760 h1         1 6ZK       0.057700
     48 H15          3.7000    -0.9990   -11.7700 h1         1 6ZK       0.057700
     49 H16          3.7590    -2.2440   -13.9540 ha         1 6ZK       0.145000
     50 H17          2.6000    -2.1840   -16.1710 ha         1 6ZK       0.148000
     51 H18          2.3930    -0.0090   -17.3140 h4         1 6ZK       0.032100
     52 H19          3.3500     2.1190   -14.1140 h4         1 6ZK       0.045100
     53 H333         2.4720    -0.8130     1.2160 hn         1 6ZK       0.476467
@<TRIPOS>BOND
     1    30    31 ar  
     2    30    29 ar  
     3    31    32 ar  
     4    32    33 ar  
     5    29    28 ar  
     6    33    28 ar  
     7    28    27 1   
     8    27    26 1   
     9    26    22 1   
    10    24    25 2   
    11    24    23 1   
    12    22    23 1   
    13    22    21 2   
    14    25    19 1   
    15    23    18 1   
    16    21    16 1   
    17    19    18 2   
    18    19    20 1   
    19    18    17 1   
    20    16    17 2   
    21    16    15 1   
    22    15    14 ar  
    23    15    12 ar  
    24    14    13 ar  
    25    12    11 ar  
    26    13    10 ar  
    27    11    10 ar  
    28    10     9 1   
    29     6     9 ar  
    30     6     5 ar  
    31     9     8 ar  
    32     5     4 ar  
    33     8     7 ar  
    34     4     7 ar  
    35     4     2 1   
    36     2     3 1   
    37     2     1 2   
    38     3    34 1   
    39     3    35 1   
    40     5    36 1   
    41     6    37 1   
    42     7    38 1   
    43     8    39 1   
    44    11    40 1   
    45    12    41 1   
    46    13    42 1   
    47    14    43 1   
    48    21    44 1   
    49    25    45 1   
    50    26    46 1   
    51    27    47 1   
    52    27    48 1   
    53    29    49 1   
    54    30    50 1   
    55    31    51 1   
    56    33    52 1   
    57    53     3 1   
@<TRIPOS>SUBSTRUCTURE
     1 6ZK         1 TEMP              0 ****  ****    0 ROOT
