@<TRIPOS>MOLECULE
6ZM
   43    46     1     0     0
SMALL
bcc


@<TRIPOS>ATOM
      1 C6           0.0000     0.0000     0.0000 c3         1 6ZM       0.137300
      2 N1           5.5630    -0.0340     0.1490 nu         1 6ZM      -0.473900
      3 C5           1.5060     0.0000     0.0000 ca         1 6ZM      -0.431900
      4 C4           2.1720     0.0000     1.2200 ca         1 6ZM       0.500200
      5 C2           4.1810    -0.0190     0.1020 ca         1 6ZM       0.726900
      6 N3           3.4940    -0.0090     1.2360 nb         1 6ZM      -0.698000
      7 N7          -0.4890     0.2630    -1.3590 n          1 6ZM      -0.171800
      8 C8           0.1680    -0.4530    -2.4660 c3         1 6ZM       0.053000
      9 C9           1.6230     0.0090    -2.5300 c3         1 6ZM      -0.092700
     10 C10          2.2480    -0.0040    -1.1610 ca         1 6ZM       0.482600
     11 N11          3.5740    -0.0160    -1.0740 nb         1 6ZM      -0.698000
     12 C12         -1.5000     1.1250    -1.5850 c          1 6ZM       0.594100
     13 O13         -1.8190     1.4010    -2.7220 o          1 6ZM      -0.645100
     14 C14         -2.2340     1.7460    -0.4240 c3         1 6ZM      -0.073100
     15 C15          6.2520    -0.0370     1.4430 c3         1 6ZM       0.126500
     16 C16          7.6940     0.4950     1.2970 c3         1 6ZM       0.028400
     17 C17          8.5150    -0.3150     2.2780 ca         1 6ZM      -0.101800
     18 C18          7.8180    -1.4490     2.6470 ca         1 6ZM      -0.101800
     19 C19          6.4750    -1.4800     1.9410 c3         1 6ZM       0.028400
     20 C20          8.3800    -2.3430     3.5420 ca         1 6ZM      -0.080000
     21 C21          9.6350    -2.1050     4.0670 ca         1 6ZM      -0.101000
     22 C22         10.3330    -0.9700     3.6980 ca         1 6ZM      -0.101000
     23 C23          9.7730    -0.0770     2.8060 ca         1 6ZM      -0.080000
     24 H1          -0.3490     0.7890     0.6550 h1         1 6ZM       0.026700
     25 H2          -0.3490    -0.9760     0.3140 h1         1 6ZM       0.026700
     26 H3           6.0930    -0.0110    -0.7000 hn         1 6ZM       0.303800
     27 H4           1.6140     0.0080     2.1480 h4         1 6ZM      -0.018900
     28 H5          -0.3260    -0.1960    -3.3960 h1         1 6ZM       0.040700
     29 H6           0.1420    -1.5170    -2.2640 h1         1 6ZM       0.040700
     30 H7           1.6460     1.0240    -2.9090 hc         1 6ZM       0.043200
     31 H8           2.1740    -0.6730    -3.1660 hc         1 6ZM       0.043200
     32 H9          -2.5260     0.9720     0.2750 hc         1 6ZM       0.024700
     33 H10         -1.5870     2.4580     0.0740 hc         1 6ZM       0.024700
     34 H11         -3.1180     2.2560    -0.7880 hc         1 6ZM       0.024700
     35 H12          5.7050     0.5400     2.1780 h1         1 6ZM       0.064700
     36 H13          7.7240     1.5420     1.5750 hc         1 6ZM       0.029200
     37 H14          8.0480     0.3130     0.2900 hc         1 6ZM       0.029200
     38 H15          6.5250    -2.1540     1.0940 hc         1 6ZM       0.029200
     39 H16          5.6980    -1.7450     2.6490 hc         1 6ZM       0.029200
     40 H17          7.8340    -3.2330     3.8310 ha         1 6ZM       0.102500
     41 H18         10.0730    -2.8070     4.7670 ha         1 6ZM       0.103500
     42 H19         11.3170    -0.7800     4.1090 ha         1 6ZM       0.103500
     43 H20         10.3200     0.8120     2.5170 ha         1 6ZM       0.102500
@<TRIPOS>BOND
     1     1     3 1   
     2     1     7 1   
     3     1    24 1   
     4     1    25 1   
     5     2     5 1   
     6     2    15 1   
     7     2    26 1   
     8     3     4 ar  
     9     3    10 ar  
    10     4     6 ar  
    11     4    27 1   
    12     5     6 ar  
    13     5    11 ar  
    14     7     8 1   
    15     7    12 1   
    16     8     9 1   
    17     8    28 1   
    18     8    29 1   
    19     9    10 1   
    20     9    30 1   
    21     9    31 1   
    22    10    11 ar  
    23    12    13 2   
    24    12    14 1   
    25    14    32 1   
    26    14    33 1   
    27    14    34 1   
    28    15    16 1   
    29    15    19 1   
    30    15    35 1   
    31    16    17 1   
    32    16    36 1   
    33    16    37 1   
    34    17    18 ar  
    35    17    23 ar  
    36    18    19 1   
    37    18    20 ar  
    38    19    38 1   
    39    19    39 1   
    40    20    21 ar  
    41    20    40 1   
    42    21    22 ar  
    43    21    41 1   
    44    22    23 ar  
    45    22    42 1   
    46    23    43 1   
@<TRIPOS>SUBSTRUCTURE
     1 6ZM         1 TEMP              0 ****  ****    0 ROOT
