@<TRIPOS>MOLECULE
molecule
   43    46     1     0     0
SMALL
bcc


@<TRIPOS>ATOM
      1 C6           0.0000     0.0000     0.0000 c3         1 6ZM       0.169300
      2 N1           5.5630    -0.0340     0.1490 nu         1 6ZM      -0.890900
      3 C5           1.5060     0.0000     0.0000 ca         1 6ZM      -0.423900
      4 C4           2.1720     0.0000     1.2200 ca         1 6ZM       0.504200
      5 C2           4.1810    -0.0190     0.1020 ca         1 6ZM       0.946900
      6 N3           3.4940    -0.0090     1.2360 nb         1 6ZM      -0.796000
      7 N7          -0.4890     0.2630    -1.3590 n          1 6ZM      -0.500800
      8 C8           0.1680    -0.4530    -2.4660 c3         1 6ZM       0.106000
      9 C9           1.6230     0.0090    -2.5300 c3         1 6ZM      -0.151700
     10 C10          2.2480    -0.0040    -1.1610 ca         1 6ZM       0.527600
     11 N11          3.5740    -0.0160    -1.0740 nb         1 6ZM      -0.804000
     12 C12         -1.5000     1.1250    -1.5850 c          1 6ZM       0.667100
     13 O13         -1.8190     1.4010    -2.7220 o          1 6ZM      -0.608100
     14 C14         -2.2340     1.7460    -0.4240 c3         1 6ZM      -0.170100
     15 C15          6.2520    -0.0370     1.4430 c3         1 6ZM       0.247500
     16 C16          7.6940     0.4950     1.2970 c3         1 6ZM      -0.048600
     17 C17          8.5150    -0.3150     2.2780 ca         1 6ZM      -0.094800
     18 C18          7.8180    -1.4490     2.6470 ca         1 6ZM      -0.094800
     19 C19          6.4750    -1.4800     1.9410 c3         1 6ZM      -0.048600
     20 C20          8.3800    -2.3430     3.5420 ca         1 6ZM      -0.112000
     21 C21          9.6350    -2.1050     4.0670 ca         1 6ZM      -0.126500
     22 C22         10.3330    -0.9700     3.6980 ca         1 6ZM      -0.126500
     23 C23          9.7730    -0.0770     2.8060 ca         1 6ZM      -0.112000
     24 H1          -0.3490     0.7890     0.6550 h1         1 6ZM       0.054700
     25 H2          -0.3490    -0.9760     0.3140 h1         1 6ZM       0.054700
     26 H3           6.0930    -0.0110    -0.7000 hn         1 6ZM       0.459800
     27 H4           1.6140     0.0080     2.1480 h4         1 6ZM       0.027100
     28 H5          -0.3260    -0.1960    -3.3960 h1         1 6ZM       0.070200
     29 H6           0.1420    -1.5170    -2.2640 h1         1 6ZM       0.070200
     30 H7           1.6460     1.0240    -2.9090 hc         1 6ZM       0.078200
     31 H8           2.1740    -0.6730    -3.1660 hc         1 6ZM       0.078200
     32 H9          -2.5260     0.9720     0.2750 hc         1 6ZM       0.061367
     33 H10         -1.5870     2.4580     0.0740 hc         1 6ZM       0.061367
     34 H11         -3.1180     2.2560    -0.7880 hc         1 6ZM       0.061367
     35 H12          5.7050     0.5400     2.1780 h1         1 6ZM       0.091700
     36 H13          7.7240     1.5420     1.5750 hc         1 6ZM       0.062950
     37 H14          8.0480     0.3130     0.2900 hc         1 6ZM       0.062950
     38 H15          6.5250    -2.1540     1.0940 hc         1 6ZM       0.062950
     39 H16          5.6980    -1.7450     2.6490 hc         1 6ZM       0.062950
     40 H17          7.8340    -3.2330     3.8310 ha         1 6ZM       0.129000
     41 H18         10.0730    -2.8070     4.7670 ha         1 6ZM       0.131000
     42 H19         11.3170    -0.7800     4.1090 ha         1 6ZM       0.131000
     43 H20         10.3200     0.8120     2.5170 ha         1 6ZM       0.129000
@<TRIPOS>BOND
     1    22    23 ar
     2    22    21 ar
     3    23    17 ar
     4    21    20 ar
     5    17    16 1
     6    17    18 ar
     7    20    18 ar
     8    16    15 1
     9    18    19 1
    10    19    15 1
    11    15     2 1
    12     2     5 1
    13     5    11 ar
    14     5     6 ar
    15    11    10 ar
    16     6     4 ar
    17    10     9 1
    18    10     3 ar
    19     4     3 ar
    20     9     8 1
    21     3     1 1
    22     8     7 1
    23     1     7 1
    24     7    12 1
    25    12    13 2
    26    12    14 1
    27     1    24 1
    28     1    25 1
    29     2    26 1
    30     4    27 1
    31     8    28 1
    32     8    29 1
    33     9    30 1
    34     9    31 1
    35    14    32 1
    36    14    33 1
    37    14    34 1
    38    15    35 1
    39    16    36 1
    40    16    37 1
    41    19    38 1
    42    19    39 1
    43    20    40 1
    44    21    41 1
    45    22    42 1
    46    23    43 1
@<TRIPOS>SUBSTRUCTURE
     1 6ZM         1 TEMP              0 ****  ****    0 ROOT
