@<TRIPOS>MOLECULE
6ZN
   59    64     1     0     0
SMALL
bcc


@<TRIPOS>ATOM
      1 C7           0.0000     0.0000     0.0000 ca         1 6ZN      -0.001000
      2 C6           1.4180    -0.0020     2.3980 ca         1 6ZN      -0.096000
      3 C1          16.7020    -3.5310     0.1450 ca         1 6ZN      -0.101500
      4 C5          14.9120    -2.3700     1.2270 ca         1 6ZN      -0.080500
      5 C4          16.0040    -3.4940    -1.0460 ca         1 6ZN      -0.080500
      6 C3           2.0990     0.0000     1.2140 ca         1 6ZN      -0.058000
      7 C2          16.1560    -2.9680     1.2830 ca         1 6ZN      -0.101500
      8 C8           8.3650    -2.1780    -1.4820 ca         1 6ZN       0.493200
      9 C9           1.3990     0.0000     0.0000 ca         1 6ZN      -0.186600
     10 C10         14.7590    -2.8900    -1.1050 ca         1 6ZN      -0.100300
     11 C11         14.2150    -2.3210     0.0310 ca         1 6ZN      -0.100300
     12 C12          7.6480    -1.2740    -2.2550 ca         1 6ZN      -0.403900
     13 C13          0.0280    -0.0080     2.4050 ca         1 6ZN      -0.163400
     14 C14         -0.6830    -0.0020     1.2010 ca         1 6ZN       0.044100
     15 C15          8.3420    -0.4290    -3.0960 ca         1 6ZN       0.480600
     16 C16         10.3200    -1.3730    -2.3850 ca         1 6ZN       0.723900
     17 C17         -2.1370    -0.0030     2.8480 c          1 6ZN       0.739600
     18 C18          2.1350     0.0010    -1.2710 c          1 6ZN       0.629700
     19 C19         13.8060    -2.7180    -2.2690 c3         1 6ZN       0.027400
     20 C20         12.8570    -1.7330    -0.2890 c3         1 6ZN       0.027400
     21 C21          6.1480    -1.2480    -2.1550 c3         1 6ZN       0.232100
     22 C22          7.6350     0.5790    -3.9620 c3         1 6ZN      -0.069700
     23 C23          6.1510     0.2240    -4.0670 c3         1 6ZN       0.154800
     24 C24         12.4440    -2.3770    -1.6290 c3         1 6ZN       0.128500
     25 C25          3.6420     0.0030    -1.2700 c3         1 6ZN      -0.130400
     26 C26          4.1540     0.0030    -2.7120 c3         1 6ZN       0.162800
     27 N27          9.6840    -2.2000    -1.5700 nb         1 6ZN      -0.699000
     28 N28          9.6640    -0.5060    -3.1430 nb         1 6ZN      -0.696000
     29 N29         -0.9180    -0.0100     3.4230 ns         1 6ZN      -0.013100
     30 N30         11.7020    -1.4250    -2.4590 nu         1 6ZN      -0.478900
     31 N31          5.6220     0.0040    -2.7110 n3         1 6ZN      -0.546600
     32 O32         -3.1950    -0.0020     3.4470 o          1 6ZN      -0.651500
     33 O33          1.5300     0.0010    -2.3220 o          1 6ZN      -0.557100
     34 O34         -2.0020     0.0010     1.5120 os         1 6ZN      -0.238200
     35 H1          -0.5450    -0.0000    -0.9360 ha         1 6ZN       0.136000
     36 H2           1.9620    -0.0020     3.3350 ha         1 6ZN       0.111000
     37 H4          14.4850    -1.9290     2.1190 ha         1 6ZN       0.101500
     38 H5          16.4320    -3.9350    -1.9380 ha         1 6ZN       0.101500
     39 H6           3.1820     0.0000     1.2140 ha         1 6ZN       0.116000
     40 H7          16.7020    -2.9970     2.2180 ha         1 6ZN       0.103000
     41 H8           7.8490    -2.8570    -0.8130 h4         1 6ZN      -0.019900
     42 H9          14.1330    -1.8920    -2.8880 hc         1 6ZN       0.028200
     43 H10         13.7270    -3.6510    -2.8140 hc         1 6ZN       0.028200
     44 H11         12.1450    -1.9900     0.4850 hc         1 6ZN       0.028200
     45 H12         12.9320    -0.6570    -0.3980 hc         1 6ZN       0.028200
     46 H13          5.7480    -2.0760    -2.7270 h1         1 6ZN       0.015700
     47 H14          5.8710    -1.3050    -1.1090 h1         1 6ZN       0.015700
     48 H15          8.0760     0.5740    -4.9510 hc         1 6ZN       0.037200
     49 H16          7.7370     1.5640    -3.5220 hc         1 6ZN       0.037200
     50 H17          6.0350    -0.6800    -4.6530 h1         1 6ZN       0.014700
     51 H18          5.6150     1.0400    -4.5370 h1         1 6ZN       0.014700
     52 H19         11.8670    -3.2780    -1.4570 h1         1 6ZN       0.065700
     53 H20          4.0020     0.8880    -0.7590 hc         1 6ZN       0.044700
     54 H21          4.0030    -0.8810    -0.7580 hc         1 6ZN       0.044700
     55 H22          3.7930    -0.8820    -3.2230 h1         1 6ZN       0.023700
     56 H23          3.7920     0.8870    -3.2240 h1         1 6ZN       0.023700
     57 H24         -0.7300    -0.1080     4.4010 hn         1 6ZN       0.202500
     58 H25         12.1910    -0.8380    -3.1060 hn         1 6ZN       0.302800
     59 H3          17.6770    -4.0010     0.1870 ha         1 6ZN       0.103000
@<TRIPOS>BOND
     1     1     9 ar  
     2     1    14 ar  
     3     1    35 1   
     4     2     6 ar  
     5     2    13 ar  
     6     2    36 1   
     7     3     5 ar  
     8     3     7 ar  
     9     3    59 1   
    10     4     7 ar  
    11     4    11 ar  
    12     4    37 1   
    13     5    10 ar  
    14     5    38 1   
    15     6     9 ar  
    16     6    39 1   
    17     7    40 1   
    18     8    12 ar  
    19     8    27 ar  
    20     8    41 1   
    21     9    18 1   
    22    10    11 ar  
    23    10    19 1   
    24    11    20 1   
    25    12    15 ar  
    26    12    21 1   
    27    13    14 ar  
    28    13    29 1   
    29    14    34 1   
    30    15    22 1   
    31    15    28 ar  
    32    16    27 ar  
    33    16    28 ar  
    34    16    30 1   
    35    17    29 1   
    36    17    32 2   
    37    17    34 1   
    38    18    25 1   
    39    18    33 2   
    40    19    24 1   
    41    19    42 1   
    42    19    43 1   
    43    20    24 1   
    44    20    44 1   
    45    20    45 1   
    46    21    31 1   
    47    21    46 1   
    48    21    47 1   
    49    22    23 1   
    50    22    48 1   
    51    22    49 1   
    52    23    31 1   
    53    23    50 1   
    54    23    51 1   
    55    24    30 1   
    56    24    52 1   
    57    25    26 1   
    58    25    53 1   
    59    25    54 1   
    60    26    31 1   
    61    26    55 1   
    62    26    56 1   
    63    29    57 1   
    64    30    58 1   
@<TRIPOS>SUBSTRUCTURE
     1 6ZN         1 TEMP              0 ****  ****    0 ROOT
