@<TRIPOS>MOLECULE
molecule
   59    64     1     0     0
SMALL
bcc


@<TRIPOS>ATOM
      1 C7           0.0000     0.0000     0.0000 ca         1 6ZN      -0.032000
      2 C6           1.4180    -0.0020     2.3980 ca         1 6ZN      -0.138000
      3 C1          16.7020    -3.5310     0.1450 ca         1 6ZN      -0.127500
      4 C5          14.9120    -2.3700     1.2270 ca         1 6ZN      -0.112000
      5 C4          16.0040    -3.4940    -1.0460 ca         1 6ZN      -0.112000
      6 C3           2.0990     0.0000     1.2140 ca         1 6ZN      -0.077000
      7 C2          16.1560    -2.9680     1.2830 ca         1 6ZN      -0.127500
      8 C8           8.3650    -2.1780    -1.4820 ca         1 6ZN       0.500200
      9 C9           1.3990     0.0000     0.0000 ca         1 6ZN      -0.180600
     10 C10         14.7590    -2.8900    -1.1050 ca         1 6ZN      -0.093800
     11 C11         14.2150    -2.3210     0.0310 ca         1 6ZN      -0.093800
     12 C12          7.6480    -1.2740    -2.2550 ca         1 6ZN      -0.396900
     13 C13          0.0280    -0.0080     2.4050 ca         1 6ZN      -0.001400
     14 C14         -0.6830    -0.0020     1.2010 ca         1 6ZN       0.038100
     15 C15          8.3420    -0.4290    -3.0960 ca         1 6ZN       0.525600
     16 C16         10.3200    -1.3730    -2.3850 ca         1 6ZN       0.943900
     17 C17         -2.1370    -0.0030     2.8480 c          1 6ZN       0.824600
     18 C18          2.1350     0.0010    -1.2710 c          1 6ZN       0.580700
     19 C19         13.8060    -2.7180    -2.2690 c3         1 6ZN      -0.049600
     20 C20         12.8570    -1.7330    -0.2890 c3         1 6ZN      -0.049600
     21 C21          6.1480    -1.2480    -2.1550 c3         1 6ZN       0.223100
     22 C22          7.6350     0.5790    -3.9620 c3         1 6ZN      -0.125700
     23 C23          6.1510     0.2240    -4.0670 c3         1 6ZN       0.160800
     24 C24         12.4440    -2.3770    -1.6290 c3         1 6ZN       0.248500
     25 C25          3.6420     0.0030    -1.2700 c3         1 6ZN      -0.178400
     26 C26          4.1540     0.0030    -2.7120 c3         1 6ZN       0.170800
     27 N27          9.6840    -2.2000    -1.5700 nb         1 6ZN      -0.799000
     28 N28          9.6640    -0.5060    -3.1430 nb         1 6ZN      -0.802000
     29 N29         -0.9180    -0.0100     3.4230 ns         1 6ZN      -0.466100
     30 N30         11.7020    -1.4250    -2.4590 nu         1 6ZN      -0.892900
     31 N31          5.6220     0.0040    -2.7110 n3         1 6ZN      -0.730600
     32 O32         -3.1950    -0.0020     3.4470 o          1 6ZN      -0.591500
     33 O33          1.5300     0.0010    -2.3220 o          1 6ZN      -0.525100
     34 O34         -2.0020     0.0010     1.5120 os         1 6ZN      -0.258200
     35 H1          -0.5450    -0.0000    -0.9360 ha         1 6ZN       0.173000
     36 H2           1.9620    -0.0020     3.3350 ha         1 6ZN       0.142000
     37 H4          14.4850    -1.9290     2.1190 ha         1 6ZN       0.128500
     38 H5          16.4320    -3.9350    -1.9380 ha         1 6ZN       0.128500
     39 H6           3.1820     0.0000     1.2140 ha         1 6ZN       0.146000
     40 H7          16.7020    -2.9970     2.2180 ha         1 6ZN       0.131000
     41 H8           7.8490    -2.8570    -0.8130 h4         1 6ZN       0.025100
     42 H9          14.1330    -1.8920    -2.8880 hc         1 6ZN       0.061700
     43 H10         13.7270    -3.6510    -2.8140 hc         1 6ZN       0.061700
     44 H11         12.1450    -1.9900     0.4850 hc         1 6ZN       0.061700
     45 H12         12.9320    -0.6570    -0.3980 hc         1 6ZN       0.061700
     46 H13          5.7480    -2.0760    -2.7270 h1         1 6ZN       0.042700
     47 H14          5.8710    -1.3050    -1.1090 h1         1 6ZN       0.042700
     48 H15          8.0760     0.5740    -4.9510 hc         1 6ZN       0.073700
     49 H16          7.7370     1.5640    -3.5220 hc         1 6ZN       0.073700
     50 H17          6.0350    -0.6800    -4.6530 h1         1 6ZN       0.043200
     51 H18          5.6150     1.0400    -4.5370 h1         1 6ZN       0.043200
     52 H19         11.8670    -3.2780    -1.4570 h1         1 6ZN       0.093700
     53 H20          4.0020     0.8880    -0.7590 hc         1 6ZN       0.073700
     54 H21          4.0030    -0.8810    -0.7580 hc         1 6ZN       0.073700
     55 H22          3.7930    -0.8820    -3.2230 h1         1 6ZN       0.050200
     56 H23          3.7920     0.8870    -3.2240 h1         1 6ZN       0.050200
     57 H24         -0.7300    -0.1080     4.4010 hn         1 6ZN       0.370500
     58 H25         12.1910    -0.8380    -3.1060 hn         1 6ZN       0.458800
     59 H3          17.6770    -4.0010     0.1870 ha         1 6ZN       0.131000
@<TRIPOS>BOND
     1     7     4 ar  
     2     7     3 ar  
     3     4    11 ar  
     4     3     5 ar  
     5    11    10 ar  
     6    11    20 1   
     7     5    10 ar  
     8    10    19 1   
     9    20    24 1   
    10    19    24 1   
    11    24    30 1   
    12    30    16 1   
    13    16    28 ar  
    14    16    27 ar  
    15    28    15 ar  
    16    27     8 ar  
    17    15    22 1   
    18    15    12 ar  
    19    22    23 1   
    20     8    12 ar  
    21    12    21 1   
    22    23    31 1   
    23    21    31 1   
    24    31    26 1   
    25    26    25 1   
    26    33    18 2   
    27    18    25 1   
    28    18     9 1   
    29     9     1 ar  
    30     9     6 ar  
    31     1    14 ar  
    32     6     2 ar  
    33    14    34 1   
    34    14    13 ar  
    35     2    13 ar  
    36    34    17 1   
    37    13    29 1   
    38    17    29 1   
    39    17    32 2   
    40     1    35 1   
    41     2    36 1   
    42     3    59 1   
    43     4    37 1   
    44     5    38 1   
    45     6    39 1   
    46     7    40 1   
    47     8    41 1   
    48    19    42 1   
    49    19    43 1   
    50    20    44 1   
    51    20    45 1   
    52    21    46 1   
    53    21    47 1   
    54    22    48 1   
    55    22    49 1   
    56    23    50 1   
    57    23    51 1   
    58    24    52 1   
    59    25    53 1   
    60    25    54 1   
    61    26    55 1   
    62    26    56 1   
    63    29    57 1   
    64    30    58 1   
@<TRIPOS>SUBSTRUCTURE
     1 6ZN         1 TEMP              0 ****  ****    0 ROOT
