@<TRIPOS>MOLECULE
molecule
   53    56     1     0     0
SMALL
bcc


@<TRIPOS>ATOM
      1 C7           0.0000     0.0000     0.0000 c3         1 6ZO       0.216700
      2 C6           4.2730     0.0000     0.0000 ca         1 6ZO      -0.107000
      3 C1           1.5070     0.0040     0.0010 ca         1 6ZO      -0.083300
      4 C5           3.5820     0.0000     1.1980 ca         1 6ZO       0.030400
      5 C4           3.5820     0.0020    -1.1980 ca         1 6ZO       0.030400
      6 C3           2.1980     0.0020     1.1970 ca         1 6ZO      -0.098000
      7 C2           2.1980    -0.0020    -1.1970 ca         1 6ZO      -0.098000
      8 C30        -10.4530   -11.0060     3.5600 c          1 6ZO       0.824600
      9 O29         -9.2350   -10.8140     4.0900 os         1 6ZO      -0.258200
     10 C26         -8.5810    -9.8730     3.3660 ca         1 6ZO       0.039100
     11 C24         -7.3240    -9.3090     3.4720 ca         1 6ZO      -0.032000
     12 N31        -10.6080   -10.2060     2.4870 ns         1 6ZO      -0.466100
     13 C28         -9.4390    -9.4690     2.3400 ca         1 6ZO      -0.001400
     14 C27         -9.0350    -8.5020     1.4280 ca         1 6ZO      -0.138000
     15 C25         -7.7940    -7.9400     1.5280 ca         1 6ZO      -0.077000
     16 C23         -6.9210    -8.3370     2.5500 ca         1 6ZO      -0.180600
     17 C21         -5.5880    -7.7310     2.6550 c          1 6ZO       0.580700
     18 O22         -4.8340    -8.0740     3.5420 o          1 6ZO      -0.524100
     19 C20         -5.1550    -6.6840     1.6620 c3         1 6ZO      -0.178400
     20 N16         -3.3140    -5.2000     1.0260 n3         1 6ZO      -0.737600
     21 C14         -4.1250    -3.9830     1.1580 c3         1 6ZO       0.142300
     22 C12         -3.7800    -3.0170     0.0200 c3         1 6ZO       0.118500
     23 C15         -1.8820    -4.9030     1.1630 c3         1 6ZO       0.142300
     24 C13         -1.4440    -3.9740     0.0250 c3         1 6ZO       0.118500
     25 N11         -2.3260    -2.7970     0.0180 n          1 6ZO      -0.480800
     26 C9          -1.8140    -1.5500     0.0100 c          1 6ZO       0.755100
     27 O10         -2.5570    -0.5890     0.0040 o          1 6ZO      -0.614000
     28 O8          -0.4800    -1.3710     0.0090 os         1 6ZO      -0.437900
     29 Cl19         4.4490    -0.0020     2.7020 cl         1 6ZO      -0.093400
     30 Cl18         4.4500     0.0100    -2.7010 cl         1 6ZO      -0.093400
     31 H1          -0.3620     0.5040    -0.8880 h1         1 6ZO       0.062200
     32 H2          -0.3630     0.5150     0.8810 h1         1 6ZO       0.062200
     33 H3           5.3560     0.0010    -0.0000 ha         1 6ZO       0.159000
     34 H4           1.6560     0.0020     2.1350 ha         1 6ZO       0.153000
     35 H5           1.6560     0.0000    -2.1350 ha         1 6ZO       0.153000
     36 H6          -6.6530    -9.6190     4.2640 ha         1 6ZO       0.173000
     37 H7         -11.4500   -10.0840     1.9610 hn         1 6ZO       0.370500
     38 H8          -9.7060    -8.1920     0.6360 ha         1 6ZO       0.143000
     39 H9          -7.4820    -7.1870     0.8150 ha         1 6ZO       0.145000
     40 H10         -5.8320    -5.8390     1.7110 hc         1 6ZO       0.073700
     41 H11         -5.1740    -7.1040     0.6640 hc         1 6ZO       0.073700
     42 H12         -3.7170    -5.8010     2.9930 h1         1 6ZO       0.051200
     43 H13         -3.0590    -7.0660     1.9460 h1         1 6ZO       0.051200
     44 H15         -5.1760    -4.2420     1.1050 h1         1 6ZO       0.045200
     45 H16         -3.9120    -3.5090     2.1090 h1         1 6ZO       0.045200
     46 H17         -4.2900    -2.0740     0.1760 h1         1 6ZO       0.067450
     47 H18         -4.0840    -3.4480    -0.9270 h1         1 6ZO       0.067450
     48 H19         -1.3160    -5.8260     1.1130 h1         1 6ZO       0.045200
     49 H20         -1.7040    -4.4160     2.1140 h1         1 6ZO       0.045200
     50 H21         -0.4200    -3.6600     0.1870 h1         1 6ZO       0.067450
     51 H22         -1.5270    -4.4960    -0.9210 h1         1 6ZO       0.067450
     52 C17         -3.7350    -6.2210     1.9950 c3         1 6ZO       0.171800
     53 O32        -11.2850   -11.7870     3.9790 o          1 6ZO      -0.590500
@<TRIPOS>BOND
     1    53     8 2   
     2     8     9 1   
     3     8    12 1   
     4     9    10 1   
     5    12    13 1   
     6    10    13 ar  
     7    10    11 ar  
     8    13    14 ar  
     9    11    16 ar  
    10    14    15 ar  
    11    16    15 ar  
    12    16    17 1   
    13    17    18 2   
    14    17    19 1   
    15    19    52 1   
    16    52    20 1   
    17    21    20 1   
    18    21    22 1   
    19    20    23 1   
    20    29     4 1   
    21    22    25 1   
    22     4     2 ar  
    23     4     6 ar  
    24    23    24 1   
    25     2     5 ar  
    26     6     3 ar  
    27    25    24 1   
    28    25    26 1   
    29     5    30 1   
    30     5     7 ar  
    31    28    26 1   
    32    28     1 1   
    33     3     7 ar  
    34     3     1 1   
    35    26    27 2   
    36     1    31 1   
    37     1    32 1   
    38     2    33 1   
    39     6    34 1   
    40     7    35 1   
    41    11    36 1   
    42    12    37 1   
    43    14    38 1   
    44    15    39 1   
    45    19    40 1   
    46    19    41 1   
    47    52    42 1   
    48    52    43 1   
    49    21    44 1   
    50    21    45 1   
    51    22    46 1   
    52    22    47 1   
    53    23    48 1   
    54    23    49 1   
    55    24    50 1   
    56    24    51 1   
@<TRIPOS>SUBSTRUCTURE
     1 6ZO         1 TEMP              0 ****  ****    0 ROOT
