@<TRIPOS>MOLECULE
6ZP
   42    46     1     0     0
SMALL
bcc


@<TRIPOS>ATOM
      1 N01         -1.2880     0.0220    -2.2210 n1         1 6ZP      -0.074000
      2 C02         -0.7210     0.0020    -1.2380 c1         1 6ZP      -0.077000
      3 C03          0.0000     0.0000     0.0000 ca         1 6ZP       0.025000
      4 C04          1.3950     0.0000     0.0000 ca         1 6ZP      -0.065000
      5 C05          2.0840     0.0000     1.1950 ca         1 6ZP      -0.084000
      6 C06          1.4010    -0.0010     2.4000 ca         1 6ZP      -0.117000
      7 C07          0.0200    -0.0010     2.4210 ca         1 6ZP      -0.110000
      8 C08         -0.6950     0.0050     1.2260 ca         1 6ZP       0.092000
      9 C09         -2.1740     0.0110     1.2430 c2         1 6ZP      -0.139000
     10 C10         -2.8930    -1.1630     1.5760 c2         1 6ZP       0.179000
     11 O11         -2.2890    -2.1870     1.8500 o          1 6ZP      -0.396000
     12 C12         -2.8740     1.1680     0.9400 c2         1 6ZP      -0.189000
     13 C13         -4.2820     1.1380     0.9670 c3         1 6ZP      -0.139000
     14 C14         -5.0590     2.3610     0.6450 c2         1 6ZP       0.007000
     15 N15         -4.4220     3.4820     0.3330 n2         1 6ZP      -0.015000
     16 C16         -5.0750     4.5890     0.0430 c2         1 6ZP      -0.085000
     17 C17         -6.4570     4.6210     0.0520 c2         1 6ZP      -0.108000
     18 C18         -7.1620     3.4700     0.3730 c2         1 6ZP      -0.079000
     19 C19         -6.4520     2.3200     0.6690 c2         1 6ZP      -0.191000
     20 C20         -4.9340    -0.0300     1.2910 c2         1 6ZP      -0.133000
     21 N21         -4.2380    -1.1540     1.5910 n          1 6ZP       0.324000
     22 C22         -4.9300    -2.3250     1.9220 ca         1 6ZP      -0.157000
     23 C23         -5.2620    -2.5870     3.2450 ca         1 6ZP      -0.072500
     24 C24         -5.9500    -3.7400     3.5680 ca         1 6ZP      -0.094500
     25 C25         -6.3090    -4.6340     2.5760 ca         1 6ZP      -0.060000
     26 C26         -5.9800    -4.3760     1.2570 ca         1 6ZP      -0.094500
     27 C27         -5.2920    -3.2250     0.9280 ca         1 6ZP      -0.072500
     28 H1           1.6800    -0.0350    -1.0450 ha         1 6ZP       0.117000
     29 H2           3.0900    -0.3820     1.3220 ha         1 6ZP       0.106000
     30 H3           1.7970     0.0770     3.4050 ha         1 6ZP       0.106000
     31 H4          -0.1770     0.0910     3.4820 ha         1 6ZP       0.116000
     32 H5          -3.5470     1.4840     1.7280 DU         1 6ZP       0.272000
     33 H6          -4.4200     5.2740    -0.4820 h4         1 6ZP       0.132000
     34 H7          -6.7730     5.6470    -0.0940 ha         1 6ZP       0.116000
     35 H8          -8.1160     3.0550     0.6770 ha         1 6ZP       0.128000
     36 H9          -7.0790     1.6120     1.1970 ha         1 6ZP       0.113000
     37 H10         -5.8640    -0.5170     1.5600 h4         1 6ZP       0.141000
     38 H11         -4.8890    -1.8900     3.9860 ha         1 6ZP       0.117500
     39 H12         -6.2570    -3.9480     4.5860 ha         1 6ZP       0.114000
     40 H13         -6.7320    -5.4430     3.1580 ha         1 6ZP       0.118000
     41 H14         -6.2540    -4.8390     0.3170 ha         1 6ZP       0.114000
     42 H15         -4.9590    -3.1570    -0.1010 ha         1 6ZP       0.117500
@<TRIPOS>BOND
     1     1     2 1   
     2     2     3 1   
     3     3     4 1   
     4     3     8 1   
     5     4     5 1   
     6     4    28 1   
     7     5     6 1   
     8     5    29 1   
     9     6     7 1   
    10     6    30 1   
    11     7     8 1   
    12     7    31 1   
    13     8     9 1   
    14     9    10 1   
    15     9    12 1   
    16    10    11 1   
    17    10    21 1   
    18    12    13 1   
    19    12    32 1   
    20    13    14 1   
    21    13    20 1   
    22    13    32 1   
    23    14    15 1   
    24    14    19 1   
    25    15    16 1   
    26    16    17 1   
    27    16    33 1   
    28    17    18 1   
    29    17    34 1   
    30    18    19 1   
    31    18    35 1   
    32    19    36 1   
    33    20    21 1   
    34    20    37 1   
    35    21    22 1   
    36    22    23 1   
    37    22    27 1   
    38    23    24 1   
    39    23    38 1   
    40    24    25 1   
    41    24    39 1   
    42    25    26 1   
    43    25    40 1   
    44    26    27 1   
    45    26    41 1   
    46    27    42 1   
@<TRIPOS>SUBSTRUCTURE
     1 6ZP         1 TEMP              0 ****  ****    0 ROOT
