@<TRIPOS>MOLECULE
molecule
   42    45     1     0     0
SMALL
bcc


@<TRIPOS>ATOM
      1 N01         -1.2880     0.0220    -2.2210 n1         1 6ZP      -0.374800
      2 C02         -0.7210     0.0020    -1.2380 cg         1 6ZP       0.255800
      3 C03          0.0000     0.0000     0.0000 ca         1 6ZP      -0.014000
      4 C04          1.3950     0.0000     0.0000 ca         1 6ZP      -0.086000
      5 C05          2.0840     0.0000     1.1950 ca         1 6ZP      -0.117000
      6 C06          1.4010    -0.0010     2.4000 ca         1 6ZP      -0.136000
      7 C07          0.0200    -0.0010     2.4210 ca         1 6ZP      -0.130000
      8 C08         -0.6950     0.0050     1.2260 ca         1 6ZP       0.072200
      9 C09         -2.1740     0.0110     1.2430 cc         1 6ZP      -0.159400
     10 C10         -2.8930    -1.1630     1.5760 c          1 6ZP       0.638700
     11 O11         -2.2890    -2.1870     1.8500 o          1 6ZP      -0.621500
     12 C12         -2.8740     1.1680     0.9400 cd         1 6ZP      -0.199000
     13 C13         -4.2820     1.1380     0.9670 cd         1 6ZP      -0.254800
     14 C14         -5.0590     2.3610     0.6450 ca         1 6ZP       0.480100
     15 N15         -4.4220     3.4820     0.3330 nb         1 6ZP      -0.656000
     16 C16         -5.0750     4.5890     0.0430 ca         1 6ZP       0.409200
     17 C17         -6.4570     4.6210     0.0520 ca         1 6ZP      -0.218300
     18 C18         -7.1620     3.4700     0.3730 ca         1 6ZP      -0.097000
     19 C19         -6.4520     2.3200     0.6690 ca         1 6ZP      -0.278300
     20 C20         -4.9340    -0.0300     1.2910 cc         1 6ZP       0.040600
     21 N21         -4.2380    -1.1540     1.5910 n          1 6ZP      -0.218200
     22 C22         -4.9300    -2.3250     1.9220 ca         1 6ZP      -0.009400
     23 C23         -5.2620    -2.5870     3.2450 ca         1 6ZP      -0.110500
     24 C24         -5.9500    -3.7400     3.5680 ca         1 6ZP      -0.121000
     25 C25         -6.3090    -4.6340     2.5760 ca         1 6ZP      -0.101000
     26 C26         -5.9800    -4.3760     1.2570 ca         1 6ZP      -0.121000
     27 C27         -5.2920    -3.2250     0.9280 ca         1 6ZP      -0.110500
     28 H1           1.6800    -0.0350    -1.0450 ha         1 6ZP       0.146000
     29 H2           3.0900    -0.3820     1.3220 ha         1 6ZP       0.135000
     30 H3           1.7970     0.0770     3.4050 ha         1 6ZP       0.133000
     31 H4          -0.1770     0.0910     3.4820 ha         1 6ZP       0.142000
     32 H5          -3.5470     1.4840     1.7280 ha         1 6ZP       0.309000
     33 H6          -4.4200     5.2740    -0.4820 h4         1 6ZP       0.041100
     34 H7          -6.7730     5.6470    -0.0940 ha         1 6ZP       0.145000
     35 H8          -8.1160     3.0550     0.6770 ha         1 6ZP       0.156000
     36 H9          -7.0790     1.6120     1.1970 ha         1 6ZP       0.131000
     37 H10         -5.8640    -0.5170     1.5600 h4         1 6ZP       0.172000
     38 H11         -4.8890    -1.8900     3.9860 ha         1 6ZP       0.147500
     39 H12         -6.2570    -3.9480     4.5860 ha         1 6ZP       0.144000
     40 H13         -6.7320    -5.4430     3.1580 ha         1 6ZP       0.147000
     41 H14         -6.2540    -4.8390     0.3170 ha         1 6ZP       0.144000
     42 H15         -4.9590    -3.1570    -0.1010 ha         1 6ZP       0.147500
@<TRIPOS>BOND
     1    24    25 ar  
     2    24    23 ar  
     3    25    26 ar  
     4    23    22 ar  
     5     1     2 3   
     6    26    27 ar  
     7     2     3 1   
     8    22    27 ar  
     9    22    21 1   
    10    11    10 2   
    11     3     4 ar  
    12     3     8 ar  
    13     4     5 ar  
    14    10    21 1   
    15    10     9 1   
    16    21    20 1   
    17     8     9 1   
    18     8     7 ar  
    19     5     6 ar  
    20     9    12 2   
    21    20    13 2   
    22    13    12 1   
    23    13    14 1   
    24     7     6 ar  
    25    19    14 ar  
    26    19    18 ar  
    27    14    15 ar  
    28    18    17 ar  
    29    15    16 ar  
    30    17    16 ar  
    31     4    28 1   
    32     5    29 1   
    33     6    30 1   
    34     7    31 1   
    35    12    32 1   
    36    16    33 1   
    37    17    34 1   
    38    18    35 1   
    39    19    36 1   
    40    20    37 1   
    41    23    38 1   
    42    24    39 1   
    43    25    40 1   
    44    26    41 1   
    45    27    42 1   
@<TRIPOS>SUBSTRUCTURE
     1 6ZP         1 TEMP              0 ****  ****    0 ROOT
