@<TRIPOS>MOLECULE
6ZQ
   59    62     1     0     0
SMALL
bcc


@<TRIPOS>ATOM
      1 Cl1          0.0000     0.0000     0.0000 cl         1 6ZQ       0.003600
      2 CAC          1.7360     0.0000     0.0000 ca         1 6ZQ      -0.017600
      3 CAD          2.4270     0.0000     1.1970 ca         1 6ZQ      -0.093000
      4 CAE          3.8110     0.0010     1.1980 ca         1 6ZQ      -0.068000
      5 CAN          4.5060     0.0010     0.0030 ca         1 6ZQ      -0.096000
      6 CAM          3.8210     0.0010    -1.1970 ca         1 6ZQ      -0.063000
      7 CAL          2.4320    -0.0060    -1.2030 ca         1 6ZQ      -0.119400
      8 NAK          1.7350    -0.0070    -2.4180 n          1 6ZQ       0.154500
      9 CAJ          1.4060    -1.1820    -3.0010 c          1 6ZQ       0.619100
     10 OAA          1.7050    -2.2460    -2.4920 o          1 6ZQ      -0.645500
     11 CAI          0.6750    -1.1240    -4.2750 ca         1 6ZQ      -0.195600
     12 CAH          0.2890    -2.2770    -4.9560 ca         1 6ZQ      -0.049000
     13 CAG         -0.3970    -2.1660    -6.1470 ca         1 6ZQ       0.075900
     14 FAF         -0.7720    -3.2810    -6.8130 f          1 6ZQ      -0.126900
     15 CAO         -0.7040    -0.9140    -6.6710 ca         1 6ZQ      -0.096000
     16 CAP         -0.3320     0.2360    -6.0120 ca         1 6ZQ      -0.073000
     17 CAQ          0.3630     0.1480    -4.8040 ca         1 6ZQ       0.145400
     18 NAR          0.7480     1.2560    -4.1230 nc         1 6ZQ      -0.543100
     19 CAS          1.3890     1.1760    -2.9980 cd         1 6ZQ       0.306900
     20 CAT          1.7760     2.4540    -2.3000 c3         1 6ZQ      -0.065700
     21 CAU          1.2910     3.6500    -3.1220 c3         1 6ZQ      -0.059700
     22 CAV          1.6770     4.9290    -2.4260 ca         1 6ZQ       0.369600
     23 NAY          1.3100     5.1250    -1.1740 nb         1 6ZQ      -0.553000
     24 CAW          2.4160     5.8800    -3.1040 ca         1 6ZQ      -0.216300
     25 CAX          2.7670     7.0530    -2.4540 ca         1 6ZQ      -0.066000
     26 CBA          2.3590     7.2270    -1.1400 ca         1 6ZQ      -0.225300
     27 CAZ          1.6260     6.2290    -0.5250 ca         1 6ZQ       0.380600
     28 CBB          1.1770     6.4070     0.9020 c3         1 6ZQ       0.094500
     29 NBE         -0.1880     6.9490     0.9220 n3         1 6ZQ      -0.525600
     30 CBD         -0.7970     6.7960     2.2510 c3         1 6ZQ       0.136800
     31 CBC         -2.2860     7.1380     2.1720 c3         1 6ZQ      -0.024600
     32 CBF         -0.2020     8.3550     0.4960 c3         1 6ZQ       0.136800
     33 CBG          0.5740     9.2030     1.5060 c3         1 6ZQ      -0.024600
     34 H1           1.8850    -0.0000     2.1350 ha         1 6ZQ       0.120000
     35 H2           4.3500     0.0010     2.1370 ha         1 6ZQ       0.108000
     36 H3           5.5890     0.0040     0.0070 ha         1 6ZQ       0.110000
     37 H4           4.3660    -0.0010    -2.1330 ha         1 6ZQ       0.114000
     38 H5           0.4110    -3.2480    -4.4900 ha         1 6ZQ       0.140000
     39 H6          -1.2440    -0.8430    -7.6080 ha         1 6ZQ       0.118000
     40 H7          -0.5770     1.2050    -6.4290 ha         1 6ZQ       0.123000
     41 H8           2.8540     2.4980    -2.2000 hc         1 6ZQ       0.043200
     42 H9           1.3200     2.4820    -1.3180 hc         1 6ZQ       0.043200
     43 H10          1.7460     3.6220    -4.1050 hc         1 6ZQ       0.039200
     44 H11          0.2130     3.6050    -3.2230 hc         1 6ZQ       0.039200
     45 H12          2.7180     5.7100    -4.1300 ha         1 6ZQ       0.117000
     46 H13          3.3440     7.8170    -2.9600 ha         1 6ZQ       0.108000
     47 H14          2.6140     8.1310    -0.6000 ha         1 6ZQ       0.117000
     48 H15          1.8460     7.0930     1.4080 h1         1 6ZQ       0.022200
     49 H16          1.1920     5.4490     1.4080 h1         1 6ZQ       0.022200
     50 H18         -0.6780     5.7730     2.5860 h1         1 6ZQ       0.020450
     51 H19         -0.3090     7.4640     2.9500 h1         1 6ZQ       0.020450
     52 H20         -2.6620     6.8880     1.1870 hc         1 6ZQ       0.009200
     53 H21         -2.8260     6.5700     2.9200 hc         1 6ZQ       0.009200
     54 H22         -2.4230     8.1970     2.3530 hc         1 6ZQ       0.009200
     55 H23          0.2620     8.4410    -0.4790 h1         1 6ZQ       0.020450
     56 H24         -1.2250     8.7060     0.4400 h1         1 6ZQ       0.020450
     57 H25         -0.1230     9.7270     2.1480 hc         1 6ZQ       0.009200
     58 H26          1.1890     9.9210     0.9780 hc         1 6ZQ       0.009200
     59 H27          1.2050     8.5600     2.1070 hc         1 6ZQ       0.009200
@<TRIPOS>BOND
     1     1     2 1   
     2     2     3 ar  
     3     2     7 ar  
     4     3     4 ar  
     5     3    34 1   
     6     4     5 ar  
     7     4    35 1   
     8     5     6 ar  
     9     5    36 1   
    10     6     7 ar  
    11     6    37 1   
    12     7     8 1   
    13     8     9 1   
    14     8    19 1   
    15     9    10 2   
    16     9    11 1   
    17    11    12 ar  
    18    11    17 ar  
    19    12    13 ar  
    20    12    38 1   
    21    13    14 1   
    22    13    15 ar  
    23    15    16 ar  
    24    15    39 1   
    25    16    17 ar  
    26    16    40 1   
    27    17    18 1   
    28    18    19 2   
    29    19    20 1   
    30    20    21 1   
    31    20    41 1   
    32    20    42 1   
    33    21    22 1   
    34    21    43 1   
    35    21    44 1   
    36    22    23 ar  
    37    22    24 ar  
    38    23    27 ar  
    39    24    25 ar  
    40    24    45 1   
    41    25    26 ar  
    42    25    46 1   
    43    26    27 ar  
    44    26    47 1   
    45    27    28 1   
    46    28    29 1   
    47    28    48 1   
    48    28    49 1   
    49    29    30 1   
    50    29    32 1   
    51    30    31 1   
    52    30    50 1   
    53    30    51 1   
    54    31    52 1   
    55    31    53 1   
    56    31    54 1   
    57    32    33 1   
    58    32    55 1   
    59    32    56 1   
    60    33    57 1   
    61    33    58 1   
    62    33    59 1   
@<TRIPOS>SUBSTRUCTURE
     1 6ZQ         1 TEMP              0 ****  ****    0 ROOT
