@<TRIPOS>MOLECULE
molecule
   59    62     1     0     0
SMALL
bcc


@<TRIPOS>ATOM
      1 Cl1          0.0000     0.0000     0.0000 cl         1 6ZQ      -0.083400
      2 CAC          1.7360     0.0000     0.0000 ca         1 6ZQ       0.042400
      3 CAD          2.4270     0.0000     1.1970 ca         1 6ZQ      -0.117000
      4 CAE          3.8110     0.0010     1.1980 ca         1 6ZQ      -0.107000
      5 CAN          4.5060     0.0010     0.0030 ca         1 6ZQ      -0.123000
      6 CAM          3.8210     0.0010    -1.1970 ca         1 6ZQ      -0.101000
      7 CAL          2.4320    -0.0060    -1.2030 ca         1 6ZQ       0.026600
      8 NAK          1.7350    -0.0070    -2.4180 n          1 6ZQ      -0.291500
      9 CAJ          1.4060    -1.1820    -3.0010 c          1 6ZQ       0.712100
     10 OAA          1.7050    -2.2460    -2.4920 o          1 6ZQ      -0.601500
     11 CAI          0.6750    -1.1240    -4.2750 ca         1 6ZQ      -0.183600
     12 CAH          0.2890    -2.2770    -4.9560 ca         1 6ZQ      -0.092000
     13 CAG         -0.3970    -2.1660    -6.1470 ca         1 6ZQ       0.105900
     14 FAF         -0.7720    -3.2810    -6.8130 f          1 6ZQ      -0.137900
     15 CAO         -0.7040    -0.9140    -6.6710 ca         1 6ZQ      -0.131000
     16 CAP         -0.3320     0.2360    -6.0120 ca         1 6ZQ      -0.099000
     17 CAQ          0.3630     0.1480    -4.8040 ca         1 6ZQ       0.186400
     18 NAR          0.7480     1.2560    -4.1230 nc         1 6ZQ      -0.652100
     19 CAS          1.3890     1.1760    -2.9980 cd         1 6ZQ       0.514900
     20 CAT          1.7760     2.4540    -2.3000 c3         1 6ZQ      -0.111700
     21 CAU          1.2910     3.6500    -3.1220 c3         1 6ZQ      -0.108700
     22 CAV          1.6770     4.9290    -2.4260 ca         1 6ZQ       0.421600
     23 NAY          1.3100     5.1250    -1.1740 nb         1 6ZQ      -0.679000
     24 CAW          2.4160     5.8800    -3.1040 ca         1 6ZQ      -0.249300
     25 CAX          2.7670     7.0530    -2.4540 ca         1 6ZQ      -0.091000
     26 CBA          2.3590     7.2270    -1.1400 ca         1 6ZQ      -0.255300
     27 CAZ          1.6260     6.2290    -0.5250 ca         1 6ZQ       0.440600
     28 CBB          1.1770     6.4070     0.9020 c3         1 6ZQ       0.110500
     29 NBE         -0.1880     6.9490     0.9220 n3         1 6ZQ      -0.713600
     30 CBD         -0.7970     6.7960     2.2510 c3         1 6ZQ       0.153800
     31 CBC         -2.2860     7.1380     2.1720 c3         1 6ZQ      -0.115600
     32 CBF         -0.2020     8.3550     0.4960 c3         1 6ZQ       0.153800
     33 CBG          0.5740     9.2030     1.5060 c3         1 6ZQ      -0.115600
     34 H1           1.8850    -0.0000     2.1350 ha         1 6ZQ       0.151000
     35 H2           4.3500     0.0010     2.1370 ha         1 6ZQ       0.141000
     36 H3           5.5890     0.0040     0.0070 ha         1 6ZQ       0.141000
     37 H4           4.3660    -0.0010    -2.1330 ha         1 6ZQ       0.148000
     38 H5           0.4110    -3.2480    -4.4900 ha         1 6ZQ       0.169000
     39 H6          -1.2440    -0.8430    -7.6080 ha         1 6ZQ       0.149000
     40 H7          -0.5770     1.2050    -6.4290 ha         1 6ZQ       0.155000
     41 H8           2.8540     2.4980    -2.2000 hc         1 6ZQ       0.079700
     42 H9           1.3200     2.4820    -1.3180 hc         1 6ZQ       0.079700
     43 H10          1.7460     3.6220    -4.1050 hc         1 6ZQ       0.072700
     44 H11          0.2130     3.6050    -3.2230 hc         1 6ZQ       0.072700
     45 H12          2.7180     5.7100    -4.1300 ha         1 6ZQ       0.139000
     46 H13          3.3440     7.8170    -2.9600 ha         1 6ZQ       0.137000
     47 H14          2.6140     8.1310    -0.6000 ha         1 6ZQ       0.137000
     48 H15          1.8460     7.0930     1.4080 h1         1 6ZQ       0.049200
     49 H16          1.1920     5.4490     1.4080 h1         1 6ZQ       0.049200
     50 H18         -0.6780     5.7730     2.5860 h1         1 6ZQ       0.046200
     51 H19         -0.3090     7.4640     2.9500 h1         1 6ZQ       0.046200
     52 H20         -2.6620     6.8880     1.1870 hc         1 6ZQ       0.038867
     53 H21         -2.8260     6.5700     2.9200 hc         1 6ZQ       0.038867
     54 H22         -2.4230     8.1970     2.3530 hc         1 6ZQ       0.038867
     55 H23          0.2620     8.4410    -0.4790 h1         1 6ZQ       0.046200
     56 H24         -1.2250     8.7060     0.4400 h1         1 6ZQ       0.046200
     57 H25         -0.1230     9.7270     2.1480 hc         1 6ZQ       0.038867
     58 H26          1.1890     9.9210     0.9780 hc         1 6ZQ       0.038867
     59 H27          1.2050     8.5600     2.1070 hc         1 6ZQ       0.038867
@<TRIPOS>BOND
     1    33    32 1   
     2    32    29 1   
     3    30    29 1   
     4    30    31 1   
     5    29    28 1   
     6    28    27 1   
     7    26    25 ar  
     8    26    27 ar  
     9    25    24 ar  
    10    27    23 ar  
    11    23    22 ar  
    12    24    22 ar  
    13    22    21 1   
    14     5     4 ar  
    15     5     6 ar  
    16    21    20 1   
    17     4     3 ar  
    18    20    19 1   
    19     6     7 ar  
    20     3     2 ar  
    21     7     2 ar  
    22     7     8 1   
    23    19     8 1   
    24    19    18 2   
    25     2     1 1   
    26     8     9 1   
    27    18    17 1   
    28     9    10 2   
    29     9    11 1   
    30    17    11 ar  
    31    17    16 ar  
    32    11    12 ar  
    33    16    15 ar  
    34    12    13 ar  
    35    15    13 ar  
    36    13    14 1   
    37     3    34 1   
    38     4    35 1   
    39     5    36 1   
    40     6    37 1   
    41    12    38 1   
    42    15    39 1   
    43    16    40 1   
    44    20    41 1   
    45    20    42 1   
    46    21    43 1   
    47    21    44 1   
    48    24    45 1   
    49    25    46 1   
    50    26    47 1   
    51    28    48 1   
    52    28    49 1   
    53    30    50 1   
    54    30    51 1   
    55    31    52 1   
    56    31    53 1   
    57    31    54 1   
    58    32    55 1   
    59    32    56 1   
    60    33    57 1   
    61    33    58 1   
    62    33    59 1   
@<TRIPOS>SUBSTRUCTURE
     1 6ZQ         1 TEMP              0 ****  ****    0 ROOT
