@<TRIPOS>MOLECULE
6ZR
   50    52     1     0     0
SMALL
bcc


@<TRIPOS>ATOM
      1 CAO          0.0000     0.0000     0.0000 c3         1 6ZR       0.239700
      2 OAN          1.4290     0.0000     0.0000 os         1 6ZR      -0.291900
      3 CAM          2.0470     0.0000     1.2110 ca         1 6ZR       0.131100
      4 CAK          3.4370    -0.0010     1.2850 ca         1 6ZR       0.089100
      5 CAJ          4.0620     0.0000     2.5210 ca         1 6ZR      -0.100000
      6 OAL          4.1800    -0.0010     0.1460 oh         1 6ZR      -0.483100
      7 CAP          1.2950     0.0070     2.3730 ca         1 6ZR      -0.191000
      8 CAQ          1.9240     0.0130     3.6050 ca         1 6ZR      -0.061000
      9 CAI          3.3040     0.0020     3.6780 ca         1 6ZR      -0.134300
     10 CAH          3.9860     0.0090     5.0230 cy         1 6ZR       0.091000
     11 CAF          4.0200     1.3920     5.6920 cy         1 6ZR      -0.162700
     12 CAG          3.3560     2.4920     4.8630 c3         1 6ZR       0.025900
     13 CAD          3.1150     0.8010     6.7540 c          1 6ZR       0.646500
     14 OAE          2.5990     1.2350     7.7610 o          1 6ZR      -0.618500
     15 NAC          3.1110    -0.4110     6.1330 nj         1 6ZR      -0.048000
     16 CAB          2.4900    -1.6280     6.4400 ca         1 6ZR       0.033600
     17 CAR          1.7000    -1.7360     7.5770 ca         1 6ZR      -0.291000
     18 CAA          2.6590    -2.7230     5.6050 ca         1 6ZR      -0.291000
     19 CAY          2.0390    -3.9260     5.9060 ca         1 6ZR       0.193100
     20 OAZ          2.2010    -4.9980     5.0850 os         1 6ZR      -0.291400
     21 CBA          3.0260    -4.8150     3.9330 c3         1 6ZR       0.238200
     22 CAV          1.2490    -4.0360     7.0440 ca         1 6ZR       0.015100
     23 OAW          0.6400    -5.2170     7.3390 os         1 6ZR      -0.306900
     24 CAX          1.3690    -6.1370     8.1550 c3         1 6ZR       0.248700
     25 CAS          1.0840    -2.9400     7.8820 ca         1 6ZR       0.193100
     26 OAT          0.3120    -3.0450     8.9960 os         1 6ZR      -0.291400
     27 CAU          0.1880    -1.8790     9.8120 c3         1 6ZR       0.238200
     28 H1          -0.3610     0.0060    -1.0210 h1         1 6ZR      -0.000300
     29 H2          -0.3610    -0.8880     0.5050 h1         1 6ZR      -0.000300
     30 H3          -0.3610     0.8810     0.5160 h1         1 6ZR      -0.000300
     31 H4           5.1440    -0.0050     2.5820 ha         1 6ZR       0.117000
     32 H5           4.5140     0.8660    -0.0120 ho         1 6ZR       0.400000
     33 H6           0.2130     0.0150     2.3180 ha         1 6ZR       0.127000
     34 H7           1.3350     0.0160     4.5140 ha         1 6ZR       0.120000
     35 H8           4.9480    -0.4880     5.0380 h1         1 6ZR       0.046700
     36 H9           5.0010     1.6490     6.0730 hc         1 6ZR       0.060700
     37 H10          3.4650     3.4430     5.3710 hc         1 6ZR       0.014033
     38 H11          3.8290     2.5460     3.8900 hc         1 6ZR       0.014033
     39 H12          2.3040     2.2670     4.7400 hc         1 6ZR       0.014033
     40 H13          1.5720    -0.8820     8.2310 ha         1 6ZR       0.147000
     41 H14          3.3230    -2.6550     4.7520 ha         1 6ZR       0.147000
     42 H15          4.0160    -4.5010     4.2440 h1         1 6ZR       0.000033
     43 H16          2.5910    -4.0560     3.2940 h1         1 6ZR       0.000033
     44 H17          3.0980    -5.7480     3.3880 h1         1 6ZR       0.000033
     45 H18          2.2690    -5.6590     8.5220 h1         1 6ZR      -0.010300
     46 H19          1.6370    -7.0070     7.5670 h1         1 6ZR      -0.010300
     47 H20          0.7550    -6.4420     8.9930 h1         1 6ZR      -0.010300
     48 H21          1.1680    -1.5750    10.1590 h1         1 6ZR       0.000033
     49 H22         -0.4440    -2.1000    10.6640 h1         1 6ZR       0.000033
     50 H23         -0.2550    -1.0780     9.2320 h1         1 6ZR       0.000033
@<TRIPOS>BOND
     1     1     2 1   
     2     1    28 1   
     3     1    29 1   
     4     1    30 1   
     5     2     3 1   
     6     3     4 ar  
     7     3     7 ar  
     8     4     5 ar  
     9     4     6 1   
    10     5     9 ar  
    11     5    31 1   
    12     6    32 1   
    13     7     8 ar  
    14     7    33 1   
    15     8     9 ar  
    16     8    34 1   
    17     9    10 1   
    18    10    11 1   
    19    10    15 1   
    20    10    35 1   
    21    11    12 1   
    22    11    13 1   
    23    11    36 1   
    24    12    37 1   
    25    12    38 1   
    26    12    39 1   
    27    13    14 2   
    28    13    15 1   
    29    15    16 1   
    30    16    17 ar  
    31    16    18 ar  
    32    17    25 ar  
    33    17    40 1   
    34    18    19 ar  
    35    18    41 1   
    36    19    20 1   
    37    19    22 ar  
    38    20    21 1   
    39    21    42 1   
    40    21    43 1   
    41    21    44 1   
    42    22    23 1   
    43    22    25 ar  
    44    23    24 1   
    45    24    45 1   
    46    24    46 1   
    47    24    47 1   
    48    25    26 1   
    49    26    27 1   
    50    27    48 1   
    51    27    49 1   
    52    27    50 1   
@<TRIPOS>SUBSTRUCTURE
     1 6ZR         1 TEMP              0 ****  ****    0 ROOT
