@<TRIPOS>MOLECULE
molecule
   75    79     1     0     0
SMALL
bcc


@<TRIPOS>ATOM
      1 C2           0.0000     0.0000     0.0000 ca         1 6ZT      -0.007600
      2 C3           1.3830     0.0000     0.0000 ca         1 6ZT      -0.075000
      3 C41         11.7880     0.8240     1.9080 ca         1 6ZT      -0.079000
      4 C43         11.3870     0.2720     0.7050 ca         1 6ZT      -0.154000
      5 C45         10.1090    -0.2320     0.5640 ca         1 6ZT      -0.076000
      6 C48          9.2510     1.6820     4.7900 c3         1 6ZT       0.122700
      7 C52          7.6540    -2.3820     1.4520 c3         1 6ZT      -0.025400
      8 C58          8.4400    -2.4700     2.7610 c3         1 6ZT      -0.109600
      9 C12          1.2670    -0.1130     4.7800 c3         1 6ZT       0.135400
     10 C15          2.1820    -0.0000     6.0010 c3         1 6ZT       0.163800
     11 C19          3.2760     1.6280     7.4190 c3         1 6ZT       0.151100
     12 C23          3.7200     1.6030     5.0390 c3         1 6ZT       0.151100
     13 C28          4.3270    -1.1890     1.3250 c3         1 6ZT       0.249300
     14 C30          5.7490    -0.6990     1.2820 cc         1 6ZT      -0.301600
     15 Cl1         -0.8650    -0.0080    -1.5060 cl         1 6ZT      -0.106400
     16 C5           2.0750     0.0000     1.2030 ca         1 6ZT       0.047600
     17 C6           1.3730     0.0010     2.4070 ca         1 6ZT       0.155100
     18 C7          -0.0120     0.0010     2.3970 ca         1 6ZT      -0.212000
     19 C9          -0.6950     0.0000     1.1960 ca         1 6ZT      -0.075000
     20 O11          2.0470     0.0000     3.5880 os         1 6ZT      -0.317900
     21 N18          2.7170     1.3650     6.0860 n3         1 6ZT      -0.732600
     22 N27          3.4760    -0.0000     1.2070 n          1 6ZT      -0.389000
     23 C31          7.0580    -1.0050     1.3160 cd         1 6ZT      -0.082600
     24 N32          7.7420     0.1660     1.2040 na         1 6ZT       0.186300
     25 N33          6.9200     1.1490     1.1060 nd         1 6ZT      -0.392800
     26 C34          5.6780     0.7100     1.1450 cc         1 6ZT       0.229800
     27 C35          4.2560     1.0890     1.1040 c          1 6ZT       0.657000
     28 O36          3.8460     2.2280     0.9900 o          1 6ZT      -0.600500
     29 C37          9.2230    -0.1860     1.6300 ca         1 6ZT       0.022800
     30 C38          9.6270     0.3700     2.8420 ca         1 6ZT       0.141100
     31 C39         10.9120     0.8730     2.9760 ca         1 6ZT      -0.210000
     32 O47          8.7690     1.1450     3.5570 os         1 6ZT      -0.305900
     33 C54          8.5920    -2.6510     0.2740 c3         1 6ZT      -0.109600
     34 C62          4.0680    -2.1270     0.1750 ca         1 6ZT      -0.091300
     35 C63          4.1580    -3.4940     0.3630 ca         1 6ZT      -0.065300
     36 C64          3.9210    -4.3550    -0.6910 ca         1 6ZT      -0.125000
     37 C66          3.5930    -3.8490    -1.9370 ca         1 6ZT       0.033400
     38 C67          3.5020    -2.4810    -2.1250 ca         1 6ZT      -0.126000
     39 C69          3.7350    -1.6220    -1.0680 ca         1 6ZT      -0.101000
     40 Cl7          3.2960    -4.9290    -3.2620 cl         1 6ZT      -0.111400
     41 C72          4.5140    -4.0450     1.7200 c3         1 6ZT      -0.056800
     42 H1           1.9250    -0.0010    -0.9380 ha         1 6ZT       0.160000
     43 H2          12.7910     1.2180     2.0140 ha         1 6ZT       0.141000
     44 H3          12.0780     0.2350    -0.1290 ha         1 6ZT       0.147000
     45 H4           9.7980    -0.6640    -0.3800 ha         1 6ZT       0.168000
     46 H5          10.1160     2.3050     4.5980 h1         1 6ZT       0.047367
     47 H6           9.5300     0.8710     5.4520 h1         1 6ZT       0.047367
     48 H7           8.4740     2.2760     5.2540 h1         1 6ZT       0.047367
     49 H8           7.2180    -3.3480     1.2270 hc         1 6ZT       0.092700
     50 H9           7.8350    -2.9630     3.5130 hc         1 6ZT       0.039867
     51 H10          9.3480    -3.0390     2.6000 hc         1 6ZT       0.039867
     52 H11          8.6940    -1.4730     3.0990 hc         1 6ZT       0.039867
     53 H12          0.7630    -1.0720     4.7930 h1         1 6ZT       0.044200
     54 H13          0.5310     0.6820     4.8060 h1         1 6ZT       0.044200
     55 H14          3.0000    -0.7040     5.9060 h1         1 6ZT       0.044200
     56 H15          1.6160    -0.2230     6.8980 h1         1 6ZT       0.044200
     57 H16          4.1000     0.9500     7.6050 h1         1 6ZT       0.035867
     58 H17          3.6310     2.6500     7.4670 h1         1 6ZT       0.035867
     59 H18          2.5080     1.4770     8.1680 h1         1 6ZT       0.035867
     60 H19          3.2400     2.0440     4.1740 h1         1 6ZT       0.035867
     61 H20          4.4800     2.2780     5.4140 h1         1 6ZT       0.035867
     62 H21          4.1780     0.6630     4.7580 h1         1 6ZT       0.035867
     63 H22          4.1360    -1.6880     2.2680 h1         1 6ZT       0.079700
     64 H23         -0.5600     0.0010     3.3320 ha         1 6ZT       0.146000
     65 H24         -1.7790     0.0000     1.1900 ha         1 6ZT       0.146000
     66 H26         11.2290     1.3060     3.9170 ha         1 6ZT       0.153000
     67 H27          9.4860    -3.1480     0.6310 hc         1 6ZT       0.039867
     68 H28          8.0920    -3.2840    -0.4490 hc         1 6ZT       0.039867
     69 H29          8.8640    -1.7130    -0.1940 hc         1 6ZT       0.039867
     70 H30          3.9920    -5.4260    -0.5430 ha         1 6ZT       0.143000
     71 H31          3.2440    -2.0840    -3.0990 ha         1 6ZT       0.146000
     72 H32          3.6640    -0.5510    -1.2150 ha         1 6ZT       0.149000
     73 H33          5.1630    -3.3460     2.2350 hc         1 6ZT       0.048367
     74 H34          5.0260    -4.9930     1.6020 hc         1 6ZT       0.048367
     75 H35          3.6110    -4.1920     2.2990 hc         1 6ZT       0.048367
@<TRIPOS>BOND
     1    33     7 1   
     2     8     7 1   
     3    41    35 1   
     4     7    23 1   
     5    36    35 ar  
     6    36    37 ar  
     7    35    34 ar  
     8    40    37 1   
     9     3     4 ar  
    10     3    31 ar  
    11     4     5 ar  
    12    23    14 2   
    13    23    24 1   
    14    37    38 ar  
    15    31    30 ar  
    16    11    21 1   
    17    12    21 1   
    18     5    29 ar  
    19     6    32 1   
    20    30    29 ar  
    21    30    32 1   
    22    34    13 1   
    23    34    39 ar  
    24    29    24 1   
    25    21    10 1   
    26    13    14 1   
    27    13    22 1   
    28    14    26 1   
    29    24    25 1   
    30    38    39 ar  
    31    25    26 2   
    32    26    27 1   
    33    22    16 1   
    34    22    27 1   
    35    20    17 1   
    36    20     9 1   
    37    10     9 1   
    38    17    16 ar  
    39    17    18 ar  
    40    16     2 ar  
    41    27    28 2   
    42    18    19 ar  
    43     2     1 ar  
    44     1    19 ar  
    45     1    15 1   
    46     2    42 1   
    47     3    43 1   
    48     4    44 1   
    49     5    45 1   
    50     6    46 1   
    51     6    47 1   
    52     6    48 1   
    53     7    49 1   
    54     8    50 1   
    55     8    51 1   
    56     8    52 1   
    57     9    53 1   
    58     9    54 1   
    59    10    55 1   
    60    10    56 1   
    61    11    57 1   
    62    11    58 1   
    63    11    59 1   
    64    12    60 1   
    65    12    61 1   
    66    12    62 1   
    67    13    63 1   
    68    18    64 1   
    69    19    65 1   
    70    31    66 1   
    71    33    67 1   
    72    33    68 1   
    73    33    69 1   
    74    36    70 1   
    75    38    71 1   
    76    39    72 1   
    77    41    73 1   
    78    41    74 1   
    79    41    75 1   
@<TRIPOS>SUBSTRUCTURE
     1 6ZT         1 TEMP              0 ****  ****    0 ROOT
