@<TRIPOS>MOLECULE
6ZT
   75    79     1     0     0
SMALL
bcc


@<TRIPOS>ATOM
      1 C2           0.0000     0.0000     0.0000 ca         1 6ZT      -0.072600
      2 C3           1.3830     0.0000     0.0000 ca         1 6ZT      -0.054000
      3 C41         11.7880     0.8240     1.9080 ca         1 6ZT      -0.040000
      4 C43         11.3870     0.2720     0.7050 ca         1 6ZT      -0.124000
      5 C45         10.1090    -0.2320     0.5640 ca         1 6ZT      -0.067000
      6 C48          9.2510     1.6820     4.7900 c3         1 6ZT       0.239700
      7 C52          7.6540    -2.3820     1.4520 c3         1 6ZT       0.021600
      8 C58          8.4400    -2.4700     2.7610 c3         1 6ZT      -0.050600
      9 C12          1.2670    -0.1130     4.7800 c3         1 6ZT       0.198400
     10 C15          2.1820    -0.0000     6.0010 c3         1 6ZT       0.148800
     11 C19          3.2760     1.6280     7.4190 c3         1 6ZT       0.177100
     12 C23          3.7200     1.6030     5.0390 c3         1 6ZT       0.177100
     13 C28          4.3270    -1.1890     1.3250 c3         1 6ZT       0.183300
     14 C30          5.7490    -0.6990     1.2820 cc         1 6ZT      -0.307600
     15 Cl1         -0.8650    -0.0080    -1.5060 cl         1 6ZT      -0.024400
     16 C5           2.0750     0.0000     1.2030 ca         1 6ZT      -0.087400
     17 C6           1.3730     0.0010     2.4070 ca         1 6ZT       0.167100
     18 C7          -0.0120     0.0010     2.3970 ca         1 6ZT      -0.199000
     19 C9          -0.6950     0.0000     1.1960 ca         1 6ZT      -0.042000
     20 O11          2.0470     0.0000     3.5880 os         1 6ZT      -0.298900
     21 N18          2.7170     1.3650     6.0860 n3         1 6ZT      -0.545600
     22 N27          3.4760    -0.0000     1.2070 n          1 6ZT      -0.017000
     23 C31          7.0580    -1.0050     1.3160 cd         1 6ZT      -0.233600
     24 N32          7.7420     0.1660     1.2040 na         1 6ZT       0.626300
     25 N33          6.9200     1.1490     1.1060 nd         1 6ZT      -0.505800
     26 C34          5.6780     0.7100     1.1450 cc         1 6ZT       0.220800
     27 C35          4.2560     1.0890     1.1040 c          1 6ZT       0.576000
     28 O36          3.8460     2.2280     0.9900 o          1 6ZT      -0.650500
     29 C37          9.2230    -0.1860     1.6300 ca         1 6ZT      -0.127200
     30 C38          9.6270     0.3700     2.8420 ca         1 6ZT       0.150100
     31 C39         10.9120     0.8730     2.9760 ca         1 6ZT      -0.200000
     32 O47          8.7690     1.1450     3.5570 os         1 6ZT      -0.295900
     33 C54          8.5920    -2.6510     0.2740 c3         1 6ZT      -0.050600
     34 C62          4.0680    -2.1270     0.1750 ca         1 6ZT      -0.102300
     35 C63          4.1580    -3.4940     0.3630 ca         1 6ZT      -0.064300
     36 C64          3.9210    -4.3550    -0.6910 ca         1 6ZT      -0.103000
     37 C66          3.5930    -3.8490    -1.9370 ca         1 6ZT      -0.027600
     38 C67          3.5020    -2.4810    -2.1250 ca         1 6ZT      -0.102000
     39 C69          3.7350    -1.6220    -1.0680 ca         1 6ZT      -0.086000
     40 Cl7          3.2960    -4.9290    -3.2620 cl         1 6ZT      -0.028400
     41 C72          4.5140    -4.0450     1.7200 c3         1 6ZT       0.040200
     42 H1           1.9250    -0.0010    -0.9380 ha         1 6ZT       0.132000
     43 H2          12.7910     1.2180     2.0140 ha         1 6ZT       0.107000
     44 H3          12.0780     0.2350    -0.1290 ha         1 6ZT       0.114000
     45 H4           9.7980    -0.6640    -0.3800 ha         1 6ZT       0.141000
     46 H5          10.1160     2.3050     4.5980 h1         1 6ZT       0.004033
     47 H6           9.5300     0.8710     5.4520 h1         1 6ZT       0.004033
     48 H7           8.4740     2.2760     5.2540 h1         1 6ZT       0.004033
     49 H8           7.2180    -3.3480     1.2270 hc         1 6ZT       0.064700
     50 H9           7.8350    -2.9630     3.5130 hc         1 6ZT       0.015867
     51 H10          9.3480    -3.0390     2.6000 hc         1 6ZT       0.015867
     52 H11          8.6940    -1.4730     3.0990 hc         1 6ZT       0.015867
     53 H12          0.7630    -1.0720     4.7930 h1         1 6ZT       0.009700
     54 H13          0.5310     0.6820     4.8060 h1         1 6ZT       0.009700
     55 H14          3.0000    -0.7040     5.9060 h1         1 6ZT       0.016200
     56 H15          1.6160    -0.2230     6.8980 h1         1 6ZT       0.016200
     57 H16          4.1000     0.9500     7.6050 h1         1 6ZT       0.005867
     58 H17          3.6310     2.6500     7.4670 h1         1 6ZT       0.005867
     59 H18          2.5080     1.4770     8.1680 h1         1 6ZT       0.005867
     60 H19          3.2400     2.0440     4.1740 h1         1 6ZT       0.005867
     61 H20          4.4800     2.2780     5.4140 h1         1 6ZT       0.005867
     62 H21          4.1780     0.6630     4.7580 h1         1 6ZT       0.005867
     63 H22          4.1360    -1.6880     2.2680 h1         1 6ZT       0.048700
     64 H23         -0.5600     0.0010     3.3320 ha         1 6ZT       0.127000
     65 H24         -1.7790     0.0000     1.1900 ha         1 6ZT       0.112000
     66 H26         11.2290     1.3060     3.9170 ha         1 6ZT       0.136000
     67 H27          9.4860    -3.1480     0.6310 hc         1 6ZT       0.015867
     68 H28          8.0920    -3.2840    -0.4490 hc         1 6ZT       0.015867
     69 H29          8.8640    -1.7130    -0.1940 hc         1 6ZT       0.015867
     70 H30          3.9920    -5.4260    -0.5430 ha         1 6ZT       0.118000
     71 H31          3.2440    -2.0840    -3.0990 ha         1 6ZT       0.117000
     72 H32          3.6640    -0.5510    -1.2150 ha         1 6ZT       0.124000
     73 H33          5.1630    -3.3460     2.2350 hc         1 6ZT       0.016700
     74 H34          5.0260    -4.9930     1.6020 hc         1 6ZT       0.016700
     75 H35          3.6110    -4.1920     2.2990 hc         1 6ZT       0.016700
@<TRIPOS>BOND
     1     1     2 ar  
     2     1    15 1   
     3     1    19 ar  
     4     2    16 ar  
     5     2    42 1   
     6     3     4 ar  
     7     3    31 ar  
     8     3    43 1   
     9     4     5 ar  
    10     4    44 1   
    11     5    29 ar  
    12     5    45 1   
    13     6    32 1   
    14     6    46 1   
    15     6    47 1   
    16     6    48 1   
    17     7     8 1   
    18     7    23 1   
    19     7    33 1   
    20     7    49 1   
    21     8    50 1   
    22     8    51 1   
    23     8    52 1   
    24     9    10 1   
    25     9    20 1   
    26     9    53 1   
    27     9    54 1   
    28    10    21 1   
    29    10    55 1   
    30    10    56 1   
    31    11    21 1   
    32    11    57 1   
    33    11    58 1   
    34    11    59 1   
    35    12    21 1   
    36    12    60 1   
    37    12    61 1   
    38    12    62 1   
    39    13    14 1   
    40    13    22 1   
    41    13    34 1   
    42    13    63 1   
    43    14    23 2   
    44    14    26 1   
    45    16    17 ar  
    46    16    22 1   
    47    17    18 ar  
    48    17    20 1   
    49    18    19 ar  
    50    18    64 1   
    51    19    65 1   
    52    22    27 1   
    53    23    24 1   
    54    24    25 1   
    55    24    29 1   
    56    25    26 2   
    57    26    27 1   
    58    27    28 2   
    59    29    30 ar  
    60    30    31 ar  
    61    30    32 1   
    62    31    66 1   
    63    33    67 1   
    64    33    68 1   
    65    33    69 1   
    66    34    35 ar  
    67    34    39 ar  
    68    35    36 ar  
    69    35    41 1   
    70    36    37 ar  
    71    36    70 1   
    72    37    38 ar  
    73    37    40 1   
    74    38    39 ar  
    75    38    71 1   
    76    39    72 1   
    77    41    73 1   
    78    41    74 1   
    79    41    75 1   
@<TRIPOS>SUBSTRUCTURE
     1 6ZT         1 TEMP              0 ****  ****    0 ROOT
