@<TRIPOS>MOLECULE
molecule
   40    42     1     0     0
SMALL
bcc


@<TRIPOS>ATOM
      1 C2           0.0000     0.0000     0.0000 ca         1 6ZU       0.175100
      2 C4          -2.0990     0.0010     1.2260 ca         1 6ZU      -0.063000
      3 C5          -2.7810    -0.0010     0.0440 ca         1 6ZU      -0.121000
      4 C6          -2.0940    -0.0070    -1.1680 ca         1 6ZU       0.137100
      5 C8           2.0520     0.0000     1.1440 c          1 6ZU       0.749800
      6 O7           1.3510     0.0000     0.0000 os         1 6ZU      -0.304200
      7 C9           1.4150     0.0010     2.4020 cc         1 6ZU      -0.212400
      8 C18          2.2380     0.0020     3.6650 c3         1 6ZU       0.024100
      9 C19          2.5960     1.4190     4.0300 ca         1 6ZU      -0.088300
     10 C24          1.7940     2.1320     4.9020 ca         1 6ZU      -0.120000
     11 C23          2.1220     3.4330     5.2370 ca         1 6ZU      -0.127500
     12 C22          3.2520     4.0210     4.6990 ca         1 6ZU      -0.126000
     13 C21          4.0540     3.3090     3.8270 ca         1 6ZU      -0.127500
     14 C20          3.7290     2.0060     3.4980 ca         1 6ZU      -0.120000
     15 C10          0.0590     0.0020     2.4740 cd         1 6ZU       0.017600
     16 C16         -0.6470     0.0050     3.8050 c3         1 6ZU      -0.063900
     17 C3          -0.7000     0.0000     1.2210 ca         1 6ZU      -0.134800
     18 C1          -0.7090    -0.0070    -1.1910 ca         1 6ZU      -0.169000
     19 O11         -2.7870    -0.0080    -2.3350 os         1 6ZU      -0.451800
     20 S12         -3.0970     1.3810    -2.8720 s6         1 6ZU       1.441500
     21 O13         -4.0280     1.1520    -3.9220 o          1 6ZU      -0.619300
     22 O14         -3.4600     2.1290    -1.7210 o          1 6ZU      -0.619300
     23 C15         -1.5170     1.9710    -3.5420 c3         1 6ZU      -0.268300
     24 H1          -2.6390     0.0060     2.1650 ha         1 6ZU       0.153000
     25 H2          -3.8650    -0.0010     0.0480 ha         1 6ZU       0.163000
     26 H3           1.6660    -0.4450     4.4690 hc         1 6ZU       0.067200
     27 H4           3.1440    -0.5700     3.5060 hc         1 6ZU       0.067200
     28 H5           0.9080     1.6720     5.3230 ha         1 6ZU       0.137000
     29 H6           1.4930     3.9920     5.9200 ha         1 6ZU       0.131000
     30 H7           3.5080     5.0410     4.9590 ha         1 6ZU       0.129000
     31 H8           4.9410     3.7680     3.4090 ha         1 6ZU       0.131000
     32 H9           4.3580     1.4480     2.8150 ha         1 6ZU       0.137000
     33 H10         -0.8950     1.0230     4.0800 hc         1 6ZU       0.059033
     34 H11          0.0020    -0.4250     4.5590 hc         1 6ZU       0.059033
     35 H12         -1.5550    -0.5820     3.7340 hc         1 6ZU       0.059033
     36 H13         -0.1810    -0.0120    -2.1370 ha         1 6ZU       0.163000
     37 H14         -0.9690     1.1370    -3.9630 h1         1 6ZU       0.103367
     38 H15         -0.9350     2.4230    -2.7480 h1         1 6ZU       0.103367
     39 H16         -1.7050     2.7060    -4.3150 h1         1 6ZU       0.103367
     40 O17          3.2690     0.0000     1.0950 o          1 6ZU      -0.575500
@<TRIPOS>BOND
     1    22    20 2   
     2    21    20 2   
     3     3     2 ar  
     4     3     4 ar  
     5    20    19 1   
     6    20    23 1   
     7     2    17 ar  
     8    16    15 1   
     9    19     4 1   
    10    13    12 ar  
    11    13    14 ar  
    12     4    18 ar  
    13    12    11 ar  
    14    17    15 1   
    15    17     1 ar  
    16    14     9 ar  
    17    15     7 2   
    18    11    10 ar  
    19    18     1 ar  
    20     1     6 1   
    21     9    10 ar  
    22     9     8 1   
    23     7     8 1   
    24     7     5 1   
    25     6     5 1   
    26     5    40 2   
    27     2    24 1   
    28     3    25 1   
    29     8    26 1   
    30     8    27 1   
    31    10    28 1   
    32    11    29 1   
    33    12    30 1   
    34    13    31 1   
    35    14    32 1   
    36    16    33 1   
    37    16    34 1   
    38    16    35 1   
    39    18    36 1   
    40    23    37 1   
    41    23    38 1   
    42    23    39 1   
@<TRIPOS>SUBSTRUCTURE
     1 6ZU         1 TEMP              0 ****  ****    0 ROOT
