@<TRIPOS>MOLECULE
6ZV
   69    73     1     0     0
SMALL
bcc


@<TRIPOS>ATOM
      1 C1           0.0000     0.0000     0.0000 c3         1 6ZV       0.134800
      2 C2          -9.3430    -2.0510     0.8040 ca         1 6ZV       0.679900
      3 C3           1.5300     0.0000     0.0000 c3         1 6ZV      -0.000100
      4 C4         -11.4340    -1.4390     0.0460 cp         1 6ZV       0.491800
      5 C5         -10.8460    -0.9300    -1.1170 ca         1 6ZV      -0.174700
      6 C6          -9.4700    -1.0180    -1.2540 ca         1 6ZV       0.448200
      7 N2          -0.4900     0.0000     1.3850 n3         1 6ZV      -0.539600
      8 C10         -5.0840    -3.6780     2.2980 ca         1 6ZV      -0.013000
      9 C           -6.4400    -3.5050     2.5200 ca         1 6ZV      -0.272300
     10 C17        -13.5620    -2.3960     0.9040 ca         1 6ZV      -0.058000
     11 C21        -13.6180    -0.2680    -0.2420 ca         1 6ZV      -0.142000
     12 C12         -5.3400    -2.4700     0.2510 ca         1 6ZV       0.432200
     13 C16        -12.9010    -1.3690     0.2410 cp         1 6ZV      -0.136500
     14 C11         -4.5300    -3.1490     1.1400 ca         1 6ZV      -0.250600
     15 C19        -15.6510    -1.2190     0.5960 ca         1 6ZV       0.045400
     16 C18        -14.9350    -2.3260     1.0840 ca         1 6ZV      -0.244200
     17 C20        -14.9690    -0.1910    -0.0690 ca         1 6ZV       0.168900
     18 C8          -7.1960    -2.8150     1.5800 ca         1 6ZV       0.470200
     19 C23        -17.0820    -2.5500     1.5470 cc         1 6ZV       0.221800
     20 C31         -0.8710    -2.4180     1.3870 c3         1 6ZV       0.101800
     21 C35         -2.6670    -0.9250     0.7520 c3         1 6ZV       0.101800
     22 C32         -0.1440    -1.2550     2.0660 c3         1 6ZV       0.155300
     23 C34         -1.9390     0.2390     1.4320 c3         1 6ZV       0.155300
     24 C25        -18.3840    -3.1110     2.0590 c3         1 6ZV       0.014600
     25 C27        -14.9280    -5.3830     1.3400 c3         1 6ZV      -0.017600
     26 C28        -14.6800    -4.2130     3.5340 c3         1 6ZV      -0.017600
     27 N           -6.6320    -2.3290     0.4840 nb         1 6ZV      -0.568000
     28 N1          -8.7600    -1.5780    -0.2870 nb         1 6ZV      -0.596000
     29 N24        -16.9550    -1.4210     0.9130 nd         1 6ZV      -0.501100
     30 N3         -10.6530    -1.9870     0.9760 nb         1 6ZV      -0.659000
     31 N22        -15.8690    -3.1510     1.6790 na         1 6ZV       0.315700
     32 N30         -2.3210    -2.1800     1.4330 n3         1 6ZV      -0.531600
     33 N7          -8.5610    -2.6350     1.7900 nu         1 6ZV      -0.385600
     34 F29        -15.6500     0.8770    -0.5390 f          1 6ZV      -0.120900
     35 F15        -11.6020    -0.3660    -2.0840 f          1 6ZV      -0.112900
     36 H69         -0.3610    -0.8840    -0.5110 h1         1 6ZV       0.012200
     37 H77         -0.3610     0.8850    -0.5110 h1         1 6ZV       0.012200
     38 H78          1.8910     0.5200    -0.8790 hc         1 6ZV       0.006700
     39 H79          1.8910    -1.0210    -0.0110 hc         1 6ZV       0.006700
     40 H76          1.8910     0.5010     0.8900 hc         1 6ZV       0.006700
     41 H42         -8.9820    -0.6350    -2.1420 h4         1 6ZV      -0.002900
     42 H41         -4.4700    -4.2130     3.0120 ha         1 6ZV       0.112000
     43 H68         -6.9050    -3.9030     3.4140 ha         1 6ZV       0.116000
     44 H39        -13.0250    -3.2950     1.1820 ha         1 6ZV       0.119000
     45 H40        -13.0950     0.5310    -0.7530 ha         1 6ZV       0.137000
     46 H38         -4.9120    -2.0570    -0.6540 h4         1 6ZV      -0.017900
     47 H44         -0.6400    -3.3400     1.9070 h1         1 6ZV       0.019700
     48 H43         -0.5500    -2.4890     0.3540 h1         1 6ZV       0.019700
     49 H65         -2.3640    -0.9820    -0.2860 h1         1 6ZV       0.019700
     50 H66         -3.7370    -0.7650     0.8130 h1         1 6ZV       0.019700
     51 H71         -0.4480    -1.1970     3.1040 h1         1 6ZV       0.030950
     52 H72          0.9260    -1.4150     2.0060 h1         1 6ZV       0.030950
     53 H74         -2.2590     0.3100     2.4640 h1         1 6ZV       0.030950
     54 H73         -2.1690     1.1610     0.9120 h1         1 6ZV       0.030950
     55 H51        -18.5990    -4.0440     1.5520 hc         1 6ZV       0.017033
     56 H52        -19.1810    -2.4030     1.8680 hc         1 6ZV       0.017033
     57 H53        -18.3060    -3.2890     3.1240 hc         1 6ZV       0.017033
     58 H57        -15.2430    -5.1360     0.3330 hc         1 6ZV       0.018867
     59 H58        -15.2090    -6.4040     1.5660 hc         1 6ZV       0.018867
     60 H59        -13.8520    -5.2790     1.4170 hc         1 6ZV       0.018867
     61 H62        -13.6480    -4.2240     3.2050 hc         1 6ZV       0.018867
     62 H60        -14.9050    -3.2550     3.9860 hc         1 6ZV       0.018867
     63 H61        -14.8350    -5.0010     4.2620 hc         1 6ZV       0.018867
     64 H63         -2.7070    -4.2360     1.3000 h1         1 6ZV       0.012200
     65 H64         -2.8990    -3.3410    -0.2140 h1         1 6ZV       0.012200
     66 H67        -16.5350    -4.8690     2.6690 h1         1 6ZV       0.048700
     67 H70         -8.9770    -2.9270     2.6510 hn         1 6ZV       0.295800
     68 C14         -3.0590    -3.3120     0.8570 c3         1 6ZV       0.224100
     69 C26        -15.6020    -4.4340     2.3330 c3         1 6ZV      -0.064000
@<TRIPOS>BOND
     1     1     3 1   
     2     1     7 1   
     3     1    36 1   
     4     1    37 1   
     5     2    28 ar  
     6     2    30 ar  
     7     2    33 1   
     8     3    38 1   
     9     3    39 1   
    10     3    40 1   
    11     4     5 ar  
    12     4    13 1   
    13     4    30 ar  
    14     5     6 ar  
    15     5    35 1   
    16     6    28 ar  
    17     6    41 1   
    18     7    22 1   
    19     7    23 1   
    20     8     9 ar  
    21     8    14 ar  
    22     8    42 1   
    23     9    18 ar  
    24     9    43 1   
    25    10    13 ar  
    26    10    16 ar  
    27    10    44 1   
    28    11    13 ar  
    29    11    17 ar  
    30    11    45 1   
    31    12    14 ar  
    32    12    27 ar  
    33    12    46 1   
    34    14    68 1   
    35    15    16 ar  
    36    15    17 ar  
    37    15    29 1   
    38    16    31 1   
    39    17    34 1   
    40    18    27 ar  
    41    18    33 1   
    42    19    24 1   
    43    19    29 2   
    44    19    31 1   
    45    20    22 1   
    46    20    32 1   
    47    20    47 1   
    48    20    48 1   
    49    21    23 1   
    50    21    32 1   
    51    21    49 1   
    52    21    50 1   
    53    22    51 1   
    54    22    52 1   
    55    23    53 1   
    56    23    54 1   
    57    24    55 1   
    58    24    56 1   
    59    24    57 1   
    60    25    58 1   
    61    25    59 1   
    62    25    60 1   
    63    25    69 1   
    64    26    61 1   
    65    26    62 1   
    66    26    63 1   
    67    26    69 1   
    68    31    69 1   
    69    32    68 1   
    70    33    67 1   
    71    64    68 1   
    72    65    68 1   
    73    66    69 1   
@<TRIPOS>SUBSTRUCTURE
     1 6ZV         1 TEMP              0 ****  ****    0 ROOT
