@<TRIPOS>MOLECULE
molecule
   69    73     1     0     0
SMALL
bcc


@<TRIPOS>ATOM
      1 C1           0.0000     0.0000     0.0000 c3         1 6ZV       0.149800
      2 C2          -9.3430    -2.0510     0.8040 ca         1 6ZV       0.916900
      3 C3           1.5300     0.0000     0.0000 c3         1 6ZV      -0.094100
      4 C4         -11.4340    -1.4390     0.0460 cp         1 6ZV       0.527800
      5 C5         -10.8460    -0.9300    -1.1170 ca         1 6ZV      -0.156700
      6 C6          -9.4700    -1.0180    -1.2540 ca         1 6ZV       0.457200
      7 N2          -0.4900     0.0000     1.3850 n3         1 6ZV      -0.721600
      8 C10         -5.0840    -3.6780     2.2980 ca         1 6ZV      -0.043000
      9 C           -6.4400    -3.5050     2.5200 ca         1 6ZV      -0.299300
     10 C17        -13.5620    -2.3960     0.9040 ca         1 6ZV      -0.089000
     11 C21        -13.6180    -0.2680    -0.2420 ca         1 6ZV      -0.166000
     12 C12         -5.3400    -2.4700     0.2510 ca         1 6ZV       0.453200
     13 C16        -12.9010    -1.3690     0.2410 cp         1 6ZV      -0.129500
     14 C11         -4.5300    -3.1490     1.1400 ca         1 6ZV      -0.244600
     15 C19        -15.6510    -1.2190     0.5960 ca         1 6ZV       0.068400
     16 C18        -14.9350    -2.3260     1.0840 ca         1 6ZV      -0.081200
     17 C20        -14.9690    -0.1910    -0.0690 ca         1 6ZV       0.187900
     18 C8          -7.1960    -2.8150     1.5800 ca         1 6ZV       0.676200
     19 C23        -17.0820    -2.5500     1.5470 cc         1 6ZV       0.427800
     20 C31         -0.8710    -2.4180     1.3870 c3         1 6ZV       0.116800
     21 C35         -2.6670    -0.9250     0.7520 c3         1 6ZV       0.116800
     22 C32         -0.1440    -1.2550     2.0660 c3         1 6ZV       0.163800
     23 C34         -1.9390     0.2390     1.4320 c3         1 6ZV       0.163800
     24 C25        -18.3840    -3.1110     2.0590 c3         1 6ZV      -0.097400
     25 C27        -14.9280    -5.3830     1.3400 c3         1 6ZV      -0.110600
     26 C28        -14.6800    -4.2130     3.5340 c3         1 6ZV      -0.110600
     27 N           -6.6320    -2.3290     0.4840 nb         1 6ZV      -0.683000
     28 N1          -8.7600    -1.5780    -0.2870 nb         1 6ZV      -0.699000
     29 N24        -16.9550    -1.4210     0.9130 nd         1 6ZV      -0.589100
     30 N3         -10.6530    -1.9870     0.9760 nb         1 6ZV      -0.771000
     31 N22        -15.8690    -3.1510     1.6790 na         1 6ZV      -0.146300
     32 N30         -2.3210    -2.1800     1.4330 n3         1 6ZV      -0.721600
     33 N7          -8.5610    -2.6350     1.7900 nu         1 6ZV      -0.848600
     34 F29        -15.6500     0.8770    -0.5390 f          1 6ZV      -0.125900
     35 F15        -11.6020    -0.3660    -2.0840 f          1 6ZV      -0.126900
     36 H69         -0.3610    -0.8840    -0.5110 h1         1 6ZV       0.034200
     37 H77         -0.3610     0.8850    -0.5110 h1         1 6ZV       0.034200
     38 H78          1.8910     0.5200    -0.8790 hc         1 6ZV       0.039033
     39 H79          1.8910    -1.0210    -0.0110 hc         1 6ZV       0.039033
     40 H76          1.8910     0.5010     0.8900 hc         1 6ZV       0.039033
     41 H42         -8.9820    -0.6350    -2.1420 h4         1 6ZV       0.045100
     42 H41         -4.4700    -4.2130     3.0120 ha         1 6ZV       0.144000
     43 H68         -6.9050    -3.9030     3.4140 ha         1 6ZV       0.136000
     44 H39        -13.0250    -3.2950     1.1820 ha         1 6ZV       0.145000
     45 H40        -13.0950     0.5310    -0.7530 ha         1 6ZV       0.162000
     46 H38         -4.9120    -2.0570    -0.6540 h4         1 6ZV       0.025100
     47 H44         -0.6400    -3.3400     1.9070 h1         1 6ZV       0.039200
     48 H43         -0.5500    -2.4890     0.3540 h1         1 6ZV       0.039200
     49 H65         -2.3640    -0.9820    -0.2860 h1         1 6ZV       0.039200
     50 H66         -3.7370    -0.7650     0.8130 h1         1 6ZV       0.039200
     51 H71         -0.4480    -1.1970     3.1040 h1         1 6ZV       0.062700
     52 H72          0.9260    -1.4150     2.0060 h1         1 6ZV       0.062700
     53 H74         -2.2590     0.3100     2.4640 h1         1 6ZV       0.062700
     54 H73         -2.1690     1.1610     0.9120 h1         1 6ZV       0.062700
     55 H51        -18.5990    -4.0440     1.5520 hc         1 6ZV       0.060367
     56 H52        -19.1810    -2.4030     1.8680 hc         1 6ZV       0.060367
     57 H53        -18.3060    -3.2890     3.1240 hc         1 6ZV       0.060367
     58 H57        -15.2430    -5.1360     0.3330 hc         1 6ZV       0.050700
     59 H58        -15.2090    -6.4040     1.5660 hc         1 6ZV       0.050700
     60 H59        -13.8520    -5.2790     1.4170 hc         1 6ZV       0.050700
     61 H62        -13.6480    -4.2240     3.2050 hc         1 6ZV       0.050700
     62 H60        -14.9050    -3.2550     3.9860 hc         1 6ZV       0.050700
     63 H61        -14.8350    -5.0010     4.2620 hc         1 6ZV       0.050700
     64 H63         -2.7070    -4.2360     1.3000 h1         1 6ZV       0.039200
     65 H64         -2.8990    -3.3410    -0.2140 h1         1 6ZV       0.039200
     66 H67        -16.5350    -4.8690     2.6690 h1         1 6ZV       0.070700
     67 H70         -8.9770    -2.9270     2.6510 hn         1 6ZV       0.474800
     68 C14         -3.0590    -3.3120     0.8570 c3         1 6ZV       0.216100
     69 C26        -15.6020    -4.4340     2.3330 c3         1 6ZV       0.052000
@<TRIPOS>BOND
     1    22     7 1   
     2    22    20 1   
     3     7    23 1   
     4     7     1 1   
     5    20    32 1   
     6    23    21 1   
     7    32    21 1   
     8    32    68 1   
     9     1     3 1   
    10    12    27 ar  
    11    12    14 ar  
    12    27    18 ar  
    13    68    14 1   
    14    14     8 ar  
    15    18    33 1   
    16    18     9 ar  
    17    33     2 1   
    18     8     9 ar  
    19    28     2 ar  
    20    28     6 ar  
    21     2    30 ar  
    22     6     5 ar  
    23    30     4 ar  
    24     4     5 ar  
    25     4    13 1   
    26     5    35 1   
    27    26    69 1   
    28    25    69 1   
    29    10    13 ar  
    30    10    16 ar  
    31    13    11 ar  
    32    69    31 1   
    33    16    31 1   
    34    16    15 ar  
    35    11    17 ar  
    36    31    19 1   
    37    17    15 ar  
    38    17    34 1   
    39    15    29 1   
    40    19    29 2   
    41    19    24 1   
    42     1    36 1   
    43     1    37 1   
    44     3    38 1   
    45     3    39 1   
    46     3    40 1   
    47     6    41 1   
    48     8    42 1   
    49     9    43 1   
    50    10    44 1   
    51    11    45 1   
    52    12    46 1   
    53    20    47 1   
    54    20    48 1   
    55    21    49 1   
    56    21    50 1   
    57    22    51 1   
    58    22    52 1   
    59    23    53 1   
    60    23    54 1   
    61    24    55 1   
    62    24    56 1   
    63    24    57 1   
    64    25    58 1   
    65    25    59 1   
    66    25    60 1   
    67    26    61 1   
    68    26    62 1   
    69    26    63 1   
    70    68    64 1   
    71    68    65 1   
    72    69    66 1   
    73    33    67 1   
@<TRIPOS>SUBSTRUCTURE
     1 6ZV         1 TEMP              0 ****  ****    0 ROOT
