@<TRIPOS>MOLECULE
6ZW
   34    35     1     0     0
SMALL
bcc


@<TRIPOS>ATOM
      1 O17          0.0000     0.0000     0.0000 o          1 6ZW      -0.636500
      2 C8           1.2180     0.0000     0.0000 c          1 6ZW       0.795800
      3 O7           1.8720     0.0000     1.1720 os         1 6ZW      -0.280200
      4 C2           3.2210     0.0010     1.2260 ca         1 6ZW       0.228100
      5 C9           1.9040    -0.0050    -1.2310 cc         1 6ZW      -0.294200
      6 C10          3.2630    -0.0040    -1.2480 cd         1 6ZW       0.053600
      7 C16          4.0210    -0.0090    -2.5500 c3         1 6ZW       0.046100
      8 C3           3.9700     0.0020     0.0350 ca         1 6ZW      -0.231800
      9 C4           5.3700     0.0020     0.0850 ca         1 6ZW       0.009000
     10 C5           6.0040     0.0070     1.2920 ca         1 6ZW      -0.226000
     11 C6           5.2680     0.0120     2.4780 ca         1 6ZW       0.131600
     12 C1           3.8810     0.0010     2.4450 ca         1 6ZW      -0.245000
     13 N11          5.9290     0.0170     3.7020 nh         1 6ZW      -0.366000
     14 C14          5.1620     0.0210     4.9490 c3         1 6ZW       0.163300
     15 C15          4.8950    -1.4200     5.3900 c3         1 6ZW      -0.024600
     16 C12          7.3940     0.0170     3.7430 c3         1 6ZW       0.163300
     17 C13          7.9040     1.4590     3.7510 c3         1 6ZW      -0.024600
     18 H1           1.3510    -0.0860    -2.1590 ha         1 6ZW       0.142000
     19 H2           3.3200    -0.0080    -3.3760 hc         1 6ZW       0.016367
     20 H3           4.6480     0.8720    -2.6070 hc         1 6ZW       0.016367
     21 H4           4.6410    -0.8970    -2.6040 hc         1 6ZW       0.016367
     22 H5           5.9460    -0.0010    -0.8320 ha         1 6ZW       0.106000
     23 H6           7.0870     0.0160     1.3300 ha         1 6ZW       0.123000
     24 H7           3.3150     0.0040     3.3690 ha         1 6ZW       0.140000
     25 H8           5.7260     0.5350     5.7180 h1         1 6ZW       0.027950
     26 H9           4.2190     0.5310     4.7910 h1         1 6ZW       0.027950
     27 H10          5.0740    -2.0910     4.5580 hc         1 6ZW       0.011200
     28 H11          5.5560    -1.6750     6.2090 hc         1 6ZW       0.011200
     29 H12          3.8660    -1.5130     5.7140 hc         1 6ZW       0.011200
     30 H13          7.7800    -0.4980     2.8710 h1         1 6ZW       0.027950
     31 H14          7.7310    -0.4900     4.6390 h1         1 6ZW       0.027950
     32 H15          7.1080     2.1250     3.4400 hc         1 6ZW       0.011200
     33 H16          8.2250     1.7230     4.7520 hc         1 6ZW       0.011200
     34 H17          8.7390     1.5510     3.0680 hc         1 6ZW       0.011200
@<TRIPOS>BOND
     1     1     2 2   
     2     2     3 1   
     3     2     5 1   
     4     3     4 1   
     5     4     8 ar  
     6     4    12 ar  
     7     5     6 2   
     8     5    18 1   
     9     6     7 1   
    10     6     8 1   
    11     7    19 1   
    12     7    20 1   
    13     7    21 1   
    14     8     9 ar  
    15     9    10 ar  
    16     9    22 1   
    17    10    11 ar  
    18    10    23 1   
    19    11    12 ar  
    20    11    13 1   
    21    12    24 1   
    22    13    14 1   
    23    13    16 1   
    24    14    15 1   
    25    14    25 1   
    26    14    26 1   
    27    15    27 1   
    28    15    28 1   
    29    15    29 1   
    30    16    17 1   
    31    16    30 1   
    32    16    31 1   
    33    17    32 1   
    34    17    33 1   
    35    17    34 1   
@<TRIPOS>SUBSTRUCTURE
     1 6ZW         1 TEMP              0 ****  ****    0 ROOT
