@<TRIPOS>MOLECULE
molecule
   21    21     1     0     0
SMALL
bcc


@<TRIPOS>ATOM
      1 C8           0.0000     0.0000     0.0000 ca         1 6ZX      -0.120000
      2 C13          0.0140     0.0020     2.4190 ca         1 6ZX      -0.120000
      3 C9           1.3790     0.0000     0.0000 ca         1 6ZX      -0.129000
      4 C12          1.3930     0.0020     2.4030 ca         1 6ZX      -0.129000
      5 C7          -0.6960     0.0010     1.2140 ca         1 6ZX       0.000200
      6 C10          2.0750     0.0000     1.1970 ca         1 6ZX       0.005400
      7 C4          -2.8450    -1.0560     0.7330 ce         1 6ZX      -0.155200
      8 C5          -2.1670     0.0020     1.2230 cf         1 6ZX      -0.141400
      9 C2          -4.2990    -0.9940     0.5990 c          1 6ZX       0.868800
     10 C6          -2.9160     1.1860     1.7780 c3         1 6ZX      -0.012900
     11 O3          -4.8870     0.0470     0.8230 o          1 6ZX      -0.840800
     12 O1          -4.9900    -2.0910     0.2240 o          1 6ZX      -0.840800
     13 Cl11         3.8100    -0.0010     1.1870 cl         1 6ZX      -0.151400
     14 H8          -0.5430    -0.0000    -0.9370 ha         1 6ZX       0.144000
     15 H9           1.9190    -0.0010    -0.9390 ha         1 6ZX       0.128500
     16 H13         -0.5180     0.0030     3.3630 ha         1 6ZX       0.144000
     17 H12          1.9440     0.0020     3.3360 ha         1 6ZX       0.128500
     18 H4          -2.3040    -1.9060     0.3340 ha         1 6ZX       0.108000
     19 H61C        -3.6070     0.8510     2.5420 hc         1 6ZX       0.038033
     20 H62C        -3.4660     1.6710     0.9810 hc         1 6ZX       0.038033
     21 H63C        -2.2130     1.8880     2.2110 hc         1 6ZX       0.038033
@<TRIPOS>BOND
     1     1     3 ar
     2     1     5 ar
     3     2     4 ar
     4     2     5 ar
     5     3     6 ar
     6     4     6 ar
     7     5     8 1
     8     6    13 1
     9     7     8 2
    10     7     9 1
    11     8    10 1
    12     9    11 1
    13     9    12 1
    14     1    14 1
    15     3    15 1
    16     2    16 1
    17     4    17 1
    18     7    18 1
    19    10    19 1
    20    10    20 1
    21    10    21 1
@<TRIPOS>SUBSTRUCTURE
     1 6ZX         1 TEMP              0 ****  ****    0 ROOT
