@<TRIPOS>MOLECULE
molecule
   62    66     1     0     0
SMALL
bcc


@<TRIPOS>ATOM
      1 C2           0.0000     0.0000     0.0000 ca         1 6ZZ       0.949900
      2 C4           2.0130     0.0000     1.1300 ca         1 6ZZ       0.531200
      3 C5           1.3090    -0.0000     2.3400 ca         1 6ZZ      -0.404400
      4 C6          -0.1050     0.0000     2.3000 ca         1 6ZZ       0.533800
      5 C20          2.0960     0.2070    -3.4710 ca         1 6ZZ       0.401200
      6 N            1.3760     0.1080    -2.3710 nb         1 6ZZ      -0.657000
      7 C9           1.6860    -0.0000     3.7010 cc         1 6ZZ      -0.150200
      8 C18          0.0940     0.3350    -4.7840 ca         1 6ZZ      -0.089000
      9 C19          1.4860     0.3240    -4.7120 ca         1 6ZZ      -0.056700
     10 C8           0.5450    -0.0000     4.4420 cd         1 6ZZ      -0.127300
     11 C16          0.0530     0.1140    -2.4030 ca         1 6ZZ       0.654200
     12 C10          0.4830     0.0000     5.9110 c          1 6ZZ       0.701300
     13 C24         -3.7830    -0.9100     2.6230 c3         1 6ZZ      -0.081400
     14 C25         -4.1100     0.5520     3.0130 c3         1 6ZZ      -0.081400
     15 C23         -2.6340    -1.3070     3.5730 c3         1 6ZZ      -0.094400
     16 C26         -2.7110     1.1480     3.3110 c3         1 6ZZ      -0.094400
     17 C28          1.9080     1.6740    -6.6210 c3         1 6ZZ       0.165800
     18 C32          3.6890     0.4220    -5.5600 c3         1 6ZZ       0.165800
     19 C29          2.7140     1.7170    -7.9210 c3         1 6ZZ       0.155800
     20 C31          4.4930     0.4660    -6.8610 c3         1 6ZZ       0.155800
     21 C22         -1.9530     0.0010     4.0100 c3         1 6ZZ       0.039000
     22 C13          2.8800    -0.4340     5.9590 c3         1 6ZZ       0.095800
     23 C14          1.5680    -0.0200     8.0910 c3         1 6ZZ       0.095800
     24 C           -0.6290     0.2290    -3.6100 ca         1 6ZZ      -0.277300
     25 N1           1.3290     0.0000     0.0000 nb         1 6ZZ      -0.732000
     26 N3          -0.7090     0.0000     1.1170 nb         1 6ZZ      -0.821000
     27 N7          -0.5480     0.0000     3.5920 na         1 6ZZ      -0.122100
     28 N27          2.2530     0.4560    -5.8750 nh         1 6ZZ      -0.597000
     29 N15         -0.6660     0.0070    -1.2130 nu         1 6ZZ      -0.848600
     30 N11          1.6110    -0.1470     6.6320 n          1 6ZZ      -0.482800
     31 N30          4.1480     1.6850    -7.6070 n7         1 6ZZ      -0.821200
     32 O12         -0.5870     0.1330     6.4740 o          1 6ZZ      -0.619100
     33 H35          3.0960    -0.0000     1.1200 h4         1 6ZZ       0.029100
     34 H34          2.6930     0.1140     4.0830 ha         1 6ZZ       0.167000
     35 H36         -0.4110     0.4250    -5.7390 ha         1 6ZZ       0.144000
     36 H38         -4.6450    -1.5460     2.7870 hc         1 6ZZ       0.046700
     37 H37         -3.4550    -0.9620     1.5920 hc         1 6ZZ       0.046700
     38 H39         -4.5790     1.0720     2.1870 hc         1 6ZZ       0.046700
     39 H40         -4.7340     0.5820     3.8980 hc         1 6ZZ       0.046700
     40 H42         -3.0310    -1.8240     4.4380 hc         1 6ZZ       0.057950
     41 H41         -1.9230    -1.9370     3.0510 hc         1 6ZZ       0.057950
     42 H43         -2.2140     1.4230     2.3880 hc         1 6ZZ       0.057950
     43 H44         -2.7970     2.0020     3.9720 hc         1 6ZZ       0.057950
     44 H45          2.1460     2.5440    -6.0200 h1         1 6ZZ       0.049200
     45 H46          0.8500     1.6670    -6.8530 h1         1 6ZZ       0.049200
     46 H48          3.9440     1.2800    -4.9500 h1         1 6ZZ       0.049200
     47 H47          3.9190    -0.4910    -5.0250 h1         1 6ZZ       0.049200
     48 H49          2.4590     0.8590    -8.5310 h1         1 6ZZ       0.040950
     49 H50          2.4830     2.6290    -8.4570 h1         1 6ZZ       0.040950
     50 H51          5.5520     0.4730    -6.6290 h1         1 6ZZ       0.040950
     51 H52          4.2550    -0.4030    -7.4610 h1         1 6ZZ       0.040950
     52 H53         -2.0250     0.1130     5.0850 h1         1 6ZZ       0.118700
     53 H55          2.7280    -1.2100     5.2180 h1         1 6ZZ       0.046033
     54 H56          3.6080    -0.7690     6.6880 h1         1 6ZZ       0.046033
     55 H54          3.2420     0.4640     5.4730 h1         1 6ZZ       0.046033
     56 H57          2.5760     0.0920     8.4740 h1         1 6ZZ       0.046033
     57 H58          1.1170    -0.9080     8.5180 h1         1 6ZZ       0.046033
     58 H59          0.9810     0.8490     8.3610 h1         1 6ZZ       0.046033
     59 H60         -1.7120     0.2340    -3.6300 ha         1 6ZZ       0.136000
     60 H61         -1.6630    -0.0790    -1.2370 hn         1 6ZZ       0.471800
     61 H62          4.6770     1.7170    -8.4560 hn         1 6ZZ       0.355800
     62 H33          3.1770     0.1980    -3.4050 h4         1 6ZZ       0.030100
@<TRIPOS>BOND
     1    18    20 1   
     2    18    28 1   
     3    20    31 1   
     4     5     6 ar  
     5     5     9 ar  
     6    31    19 1   
     7     6    11 ar  
     8    28     9 1   
     9    28    17 1   
    10     9     8 ar  
    11    11    29 1   
    12    11    24 ar  
    13    17    19 1   
    14    29     1 1   
    15     8    24 ar  
    16    25     1 ar  
    17    25     2 ar  
    18     1    26 ar  
    19     2     3 ar  
    20    26     4 ar  
    21     4     3 ar  
    22     4    27 1   
    23     3     7 1   
    24    14    16 1   
    25    14    13 1   
    26    16    21 1   
    27    27    21 1   
    28    27    10 1   
    29    13    15 1   
    30     7    10 2   
    31    15    21 1   
    32    10    12 1   
    33    23    30 1   
    34    12    30 1   
    35    12    32 2   
    36    30    22 1   
    37     2    33 1   
    38     5    62 1   
    39     7    34 1   
    40     8    35 1   
    41    13    36 1   
    42    13    37 1   
    43    14    38 1   
    44    14    39 1   
    45    15    40 1   
    46    15    41 1   
    47    16    42 1   
    48    16    43 1   
    49    17    44 1   
    50    17    45 1   
    51    18    46 1   
    52    18    47 1   
    53    19    48 1   
    54    19    49 1   
    55    20    50 1   
    56    20    51 1   
    57    21    52 1   
    58    22    53 1   
    59    22    54 1   
    60    22    55 1   
    61    23    56 1   
    62    23    57 1   
    63    23    58 1   
    64    24    59 1   
    65    29    60 1   
    66    31    61 1   
@<TRIPOS>SUBSTRUCTURE
     1 6ZZ         1 TEMP              0 ****  ****    0 ROOT
