@<TRIPOS>MOLECULE
6ZZ
   62    66     1     0     0
SMALL
bcc


@<TRIPOS>ATOM
      1 C2           0.0000     0.0000     0.0000 ca         1 6ZZ       0.701900
      2 C4           2.0130     0.0000     1.1300 ca         1 6ZZ       0.529200
      3 C5           1.3090    -0.0000     2.3400 ca         1 6ZZ      -0.399400
      4 C6          -0.1050     0.0000     2.3000 ca         1 6ZZ       0.301800
      5 C20          2.0960     0.2070    -3.4710 ca         1 6ZZ       0.369200
      6 N            1.3760     0.1080    -2.3710 nb         1 6ZZ      -0.537000
      7 C9           1.6860    -0.0000     3.7010 cc         1 6ZZ      -0.139200
      8 C18          0.0940     0.3350    -4.7840 ca         1 6ZZ      -0.067000
      9 C19          1.4860     0.3240    -4.7120 ca         1 6ZZ      -0.132700
     10 C8           0.5450    -0.0000     4.4420 cd         1 6ZZ      -0.318300
     11 C16          0.0530     0.1140    -2.4030 ca         1 6ZZ       0.448200
     12 C10          0.4830     0.0000     5.9110 c          1 6ZZ       0.644300
     13 C24         -3.7830    -0.9100     2.6230 c3         1 6ZZ      -0.020400
     14 C25         -4.1100     0.5520     3.0130 c3         1 6ZZ      -0.020400
     15 C23         -2.6340    -1.3070     3.5730 c3         1 6ZZ      -0.035900
     16 C26         -2.7110     1.1480     3.3110 c3         1 6ZZ      -0.035900
     17 C28          1.9080     1.6740    -6.6210 c3         1 6ZZ       0.135800
     18 C32          3.6890     0.4220    -5.5600 c3         1 6ZZ       0.135800
     19 C29          2.7140     1.7170    -7.9210 c3         1 6ZZ       0.145300
     20 C31          4.4930     0.4660    -6.8610 c3         1 6ZZ       0.145300
     21 C22         -1.9530     0.0010     4.0100 c3         1 6ZZ      -0.114000
     22 C13          2.8800    -0.4340     5.9590 c3         1 6ZZ       0.073300
     23 C14          1.5680    -0.0200     8.0910 c3         1 6ZZ       0.073300
     24 C           -0.6290     0.2290    -3.6100 ca         1 6ZZ      -0.249300
     25 N1           1.3290     0.0000     0.0000 nb         1 6ZZ      -0.633000
     26 N3          -0.7090     0.0000     1.1170 nb         1 6ZZ      -0.690000
     27 N7          -0.5480     0.0000     3.5920 na         1 6ZZ       0.383900
     28 N27          2.2530     0.4560    -5.8750 nh         1 6ZZ      -0.357000
     29 N15         -0.6660     0.0070    -1.2130 nu         1 6ZZ      -0.387600
     30 N11          1.6110    -0.1470     6.6320 n          1 6ZZ      -0.138800
     31 N30          4.1480     1.6850    -7.6070 n7         1 6ZZ      -0.584200
     32 O12         -0.5870     0.1330     6.4740 o          1 6ZZ      -0.668100
     33 H35          3.0960    -0.0000     1.1200 h4         1 6ZZ      -0.021900
     34 H34          2.6930     0.1140     4.0830 ha         1 6ZZ       0.159000
     35 H36         -0.4110     0.4250    -5.7390 ha         1 6ZZ       0.116000
     36 H38         -4.6450    -1.5460     2.7870 hc         1 6ZZ       0.017450
     37 H37         -3.4550    -0.9620     1.5920 hc         1 6ZZ       0.017450
     38 H39         -4.5790     1.0720     2.1870 hc         1 6ZZ       0.017450
     39 H40         -4.7340     0.5820     3.8980 hc         1 6ZZ       0.017450
     40 H42         -3.0310    -1.8240     4.4380 hc         1 6ZZ       0.027450
     41 H41         -1.9230    -1.9370     3.0510 hc         1 6ZZ       0.027450
     42 H43         -2.2140     1.4230     2.3880 hc         1 6ZZ       0.027450
     43 H44         -2.7970     2.0020     3.9720 hc         1 6ZZ       0.027450
     44 H45          2.1460     2.5440    -6.0200 h1         1 6ZZ       0.023950
     45 H46          0.8500     1.6670    -6.8530 h1         1 6ZZ       0.023950
     46 H48          3.9440     1.2800    -4.9500 h1         1 6ZZ       0.023950
     47 H47          3.9190    -0.4910    -5.0250 h1         1 6ZZ       0.023950
     48 H49          2.4590     0.8590    -8.5310 h1         1 6ZZ       0.011700
     49 H50          2.4830     2.6290    -8.4570 h1         1 6ZZ       0.011700
     50 H51          5.5520     0.4730    -6.6290 h1         1 6ZZ       0.011700
     51 H52          4.2550    -0.4030    -7.4610 h1         1 6ZZ       0.011700
     52 H53         -2.0250     0.1130     5.0850 h1         1 6ZZ       0.103700
     53 H55          2.7280    -1.2100     5.2180 h1         1 6ZZ       0.017200
     54 H56          3.6080    -0.7690     6.6880 h1         1 6ZZ       0.017200
     55 H54          3.2420     0.4640     5.4730 h1         1 6ZZ       0.017200
     56 H57          2.5760     0.0920     8.4740 h1         1 6ZZ       0.017200
     57 H58          1.1170    -0.9080     8.5180 h1         1 6ZZ       0.017200
     58 H59          0.9810     0.8490     8.3610 h1         1 6ZZ       0.017200
     59 H60         -1.7120     0.2340    -3.6300 ha         1 6ZZ       0.114000
     60 H61         -1.6630    -0.0790    -1.2370 hn         1 6ZZ       0.292800
     61 H62          4.6770     1.7170    -8.4560 hn         1 6ZZ       0.254800
     62 H33          3.1770     0.1980    -3.4050 h4         1 6ZZ      -0.003900
@<TRIPOS>BOND
     1     1    25 ar  
     2     1    26 ar  
     3     1    29 1   
     4     2     3 ar  
     5     2    25 ar  
     6     2    33 1   
     7     3     4 ar  
     8     3     7 1   
     9     4    26 ar  
    10     4    27 1   
    11     5     6 ar  
    12     5     9 ar  
    13     5    62 1   
    14     6    11 ar  
    15     7    10 2   
    16     7    34 1   
    17     8     9 ar  
    18     8    24 ar  
    19     8    35 1   
    20     9    28 1   
    21    10    12 1   
    22    10    27 1   
    23    11    24 ar  
    24    11    29 1   
    25    12    30 1   
    26    12    32 2   
    27    13    14 1   
    28    13    15 1   
    29    13    36 1   
    30    13    37 1   
    31    14    16 1   
    32    14    38 1   
    33    14    39 1   
    34    15    21 1   
    35    15    40 1   
    36    15    41 1   
    37    16    21 1   
    38    16    42 1   
    39    16    43 1   
    40    17    19 1   
    41    17    28 1   
    42    17    44 1   
    43    17    45 1   
    44    18    20 1   
    45    18    28 1   
    46    18    46 1   
    47    18    47 1   
    48    19    31 1   
    49    19    48 1   
    50    19    49 1   
    51    20    31 1   
    52    20    50 1   
    53    20    51 1   
    54    21    27 1   
    55    21    52 1   
    56    22    30 1   
    57    22    53 1   
    58    22    54 1   
    59    22    55 1   
    60    23    30 1   
    61    23    56 1   
    62    23    57 1   
    63    23    58 1   
    64    24    59 1   
    65    29    60 1   
    66    31    61 1   
@<TRIPOS>SUBSTRUCTURE
     1 6ZZ         1 TEMP              0 ****  ****    0 ROOT
