@<TRIPOS>MOLECULE
100
   28    30     1     0     0
SMALL
bcc


@<TRIPOS>ATOM
      1 N1           0.9020     0.1030     0.6920 na         1 100       0.105900
      2 N3           2.1570     0.0490     0.2440 nc         1 100      -0.467800
      3 C3           2.8840     0.4290     1.3420 cd         1 100       0.486800
      4 N4           1.9780     0.6940     2.4240 nd         1 100      -0.326000
      5 N2           0.8080     0.4800     1.9880 nc         1 100      -0.140800
      6 C8           4.3390     0.5200     1.4500 cf         1 100       0.096300
      7 C9           5.0690    -0.0120     2.4510 ce         1 100      -0.259200
      8 O1           5.0140     1.2170     0.4710 oh         1 100      -0.493100
      9 C1           7.5440     2.1010     6.9450 ca         1 100      -0.113000
     10 C2           7.2540     2.4220     5.6040 ca         1 100       0.001400
     11 C10          6.4620     1.6060     4.8020 ca         1 100      -0.085000
     12 C4           5.9480     0.4300     5.3500 ca         1 100      -0.046800
     13 C5           6.2380     0.1120     6.7320 ca         1 100      -0.062200
     14 C6           7.0390     0.9480     7.5230 ca         1 100      -0.128000
     15 C7           5.1060    -0.6400     4.8560 cc         1 100      -0.232400
     16 C12          4.9100    -1.5310     5.9240 cd         1 100      -0.018100
     17 N9           5.5930    -1.0920     7.0470 na         1 100      -0.182400
     18 C11          4.5170    -0.8320     3.5400 c          1 100       0.624500
     19 O2           3.6340    -1.6840     3.3440 o          1 100      -0.559100
     20 HN1          0.1190    -0.1660     0.1280 hn         1 100       0.356700
     21 H9           6.1630     0.1320     2.4640 ha         1 100       0.168000
     22 HO1          4.3750     1.5740    -0.1630 ho         1 100       0.433000
     23 H1           8.1770     2.7770     7.5400 ha         1 100       0.148000
     24 H10          6.2350     1.8830     3.7610 ha         1 100       0.159000
     25 H6           7.2590     0.7000     8.5700 ha         1 100       0.139000
     26 H12          4.3190    -2.4530     5.9300 h4         1 100       0.187000
     27 HN9          5.6140    -1.5340     7.9280 hn         1 100       0.305700
     28 Cl1          7.8960     3.8590     4.9530 cl         1 100      -0.098400
@<TRIPOS>BOND
     1     1     2 1   
     2     1     5 1   
     3     1    20 1   
     4     2     3 2   
     5     3     4 1   
     6     3     6 1   
     7     4     5 2   
     8     6     7 2   
     9     6     8 1   
    10     7    18 1   
    11     7    21 1   
    12     8    22 1   
    13     9    10 ar  
    14     9    14 ar  
    15     9    23 1   
    16    10    11 ar  
    17    10    28 1   
    18    11    12 ar  
    19    11    24 1   
    20    12    13 ar  
    21    12    15 1   
    22    13    14 ar  
    23    13    17 1   
    24    14    25 1   
    25    15    16 2   
    26    15    18 1   
    27    16    17 1   
    28    16    26 1   
    29    17    27 1   
    30    18    19 2   
@<TRIPOS>SUBSTRUCTURE
     1 100         1 TEMP              0 ****  ****    0 ROOT
