@<TRIPOS>MOLECULE
molecule
   28    30     1     0     0
SMALL
bcc


@<TRIPOS>ATOM
      1 N1           0.0000     0.0000     0.0000 na         1 100       0.202900
      2 N3           1.2880     0.0000     0.0000 nc         1 100      -0.548800
      3 C3           1.6920     0.0000     1.2580 cd         1 100       0.521800
      4 N4           0.5840     0.0010     2.0160 nd         1 100      -0.372000
      5 N2          -0.4270     0.0010     1.2150 nc         1 100      -0.194800
      6 C8           3.0900    -0.0000     1.7360 cf         1 100       0.111300
      7 C9           3.3520     0.0000     3.0700 ce         1 100      -0.250200
      8 O1           4.1090    -0.0020     0.8480 oh         1 100      -0.467100
      9 C1           8.3910    -0.6410     7.3770 ca         1 100      -0.103000
     10 C2           8.6340    -0.5440     6.0140 ca         1 100       0.003400
     11 C10          7.5850    -0.4130     5.1280 ca         1 100      -0.063000
     12 C4           6.2780    -0.3740     5.6080 ca         1 100      -0.055800
     13 C5           6.0320    -0.4710     6.9870 ca         1 100      -0.053200
     14 C6           7.1030    -0.6040     7.8650 ca         1 100      -0.134000
     15 C7           4.9560    -0.2460     4.9690 cc         1 100      -0.235400
     16 C12          4.0370    -0.2730     5.9750 cd         1 100      -0.049100
     17 N9           4.6660    -0.4070     7.1690 na         1 100      -0.166400
     18 C11          4.6830    -0.1150     3.5290 c          1 100       0.601500
     19 O2           5.6060    -0.1040     2.7320 o          1 100      -0.520100
     20 HN1         -0.5790    -0.0000    -0.8170 hn         1 100       0.374700
     21 H9           2.5340     0.0010     3.7800 ha         1 100       0.153000
     22 HO1          4.1230     0.8190     0.3840 ho         1 100       0.435000
     23 H1           9.2220    -0.7430     8.0640 ha         1 100       0.145000
     24 H10          7.7760    -0.3380     4.0640 ha         1 100       0.169000
     25 H6           6.9250    -0.6800     8.9310 ha         1 100       0.132000
     26 H12          2.9640    -0.1990     5.8400 h4         1 100       0.174000
     27 HN9          4.2040    -0.4510     8.0560 hn         1 100       0.300700
     28 Cl1         10.2650    -0.5930     5.4210 cl         1 100      -0.110400
@<TRIPOS>BOND
     1     1     2 1
     2     1     5 1
     3     1    20 1
     4     2     3 2
     5     3     4 1
     6     3     6 1
     7     4     5 2
     8     6     7 2
     9     6     8 1
    10     7    18 1
    11     7    21 1
    12     8    22 1
    13     9    10 ar
    14     9    14 ar
    15     9    23 1
    16    10    11 ar
    17    10    28 1
    18    11    12 ar
    19    11    24 1
    20    12    13 ar
    21    12    15 1
    22    13    14 ar
    23    13    17 1
    24    14    25 1
    25    15    16 2
    26    15    18 1
    27    16    17 1
    28    16    26 1
    29    17    27 1
    30    18    19 2
@<TRIPOS>SUBSTRUCTURE
     1 100         1 TEMP              0 ****  ****    0 ROOT
