@<TRIPOS>MOLECULE
100
   28    27     1     0     0
SMALL
bcc


@<TRIPOS>ATOM
      1 N1          2.7950    1.0630   -1.1630 n2        1 100     -0.005000
      2 N3          3.6790    0.5760   -0.2910 na        1 100     -0.173000
      3 C3          3.0570    0.5190    0.9730 c2        1 100     -0.060000
      4 N4          1.7840    0.9970    0.7640 n2        1 100     -0.079000
      5 N2          1.7010    1.2990   -0.5240 n2        1 100     -0.046000
      6 C8          3.6710    0.0460    2.2160 c2        1 100      0.221000
      7 C9          2.9860    0.0490    3.3890 c2        1 100     -0.313000
      8 O1          4.9530   -0.3690    2.0100 oh        1 100     -0.267000
      9 C1          8.6590   -0.8970    6.0120 c1        1 100     -0.064000
     10 C2          7.7190   -1.8230    5.4720 c3        1 100     -0.030000
     11 C10         4.6730   -1.3030    7.0200 c1        1 100      0.220000
     12 C4          3.4240   -0.8600    7.0570 c2        1 100     -0.453000
     13 C5         10.3320    0.7680    7.0170 c1        1 100     -0.015000
     14 C6          9.4410   -0.1190    6.4790 c1        1 100     -0.081000
     15 C7          2.7100   -0.3620    5.8870 c2        1 100     -0.082000
     16 C12         1.4470    0.0810    5.9480 c2        1 100     -0.142000
     17 N9         11.0910    1.5240    7.4740 n1        1 100     -0.013000
     18 C11         3.5360   -0.4060    4.6540 c2        1 100      0.309000
     19 O2          4.7070   -0.8450    4.7480 o         1 100     -0.351000
     20 HN1         4.6100    0.3100   -0.5290 hn        1 100      0.304000
     21 H9          1.9470    0.4180    3.3950 ha        1 100      0.180000
     22 HO1         5.3530   -0.6800    2.8470 ho        1 100      0.286000
     23 H1          6.6630   -1.5490    5.7640 h1        1 100      0.156000
     24 H10         7.9450   -2.8680    5.8080 h1        1 100      0.156000
     25 H6          2.8720   -0.8550    8.0150 ha        1 100      0.190000
     26 H12         0.8870    0.0880    6.8940 ha        1 100      0.131500
     27 HN9         0.8920    0.4590    5.0800 ha        1 100      0.131500
     28 CL1         7.7830   -1.8400    3.7090 cl        1 100     -0.110000
@<TRIPOS>BOND
     1    1    2 1   
     2    1    5 1   
     3    2    3 1   
     4    2   20 1   
     5    3    4 1   
     6    3    6 1   
     7    4    5 1   
     8    6    7 1   
     9    6    8 1   
    10    7   18 1   
    11    7   21 1   
    12    8   22 1   
    13    9   10 1   
    14    9   14 1   
    15   10   23 1   
    16   10   24 1   
    17   10   28 1   
    18   11   12 1   
    19   12   15 1   
    20   12   25 1   
    21   13   14 1   
    22   13   17 1   
    23   15   16 1   
    24   15   18 1   
    25   16   26 1   
    26   16   27 1   
    27   18   19 1   
@<TRIPOS>SUBSTRUCTURE
     1 100         1 TEMP              0 ****  ****    0 ROOT
