@<TRIPOS>MOLECULE
molecule
   34    36     1     0     0
SMALL
bcc


@<TRIPOS>ATOM
      1 P            0.0000     0.0000     0.0000 p5         1 101       1.132900
      2 O1P          1.4800     0.0000     0.0000 o          1 101      -0.899833
      3 O2P         -0.5370     0.0000     1.5170 o          1 101      -0.899833
      4 O3P         -0.5360    -1.3160    -0.7590 o          1 101      -0.899833
      5 O5'         -2.6180     3.9620     2.0770 oh         1 101      -0.644800
      6 C5'         -1.5500     3.0800     1.7270 c3         1 101       0.137400
      7 C4'         -1.0110     3.4550     0.3440 c3         1 101       0.114100
      8 O4'         -0.2930     4.7080     0.3970 os         1 101      -0.446600
      9 C3'          0.0660     2.4380    -0.1150 c3         1 101       0.169100
     10 O3'         -0.5360     1.3140    -0.7600 os         1 101      -0.512200
     11 C2'          0.8910     3.2750    -1.1220 c3         1 101      -0.137400
     12 C1'          0.5820     4.7360    -0.7430 c3         1 101       0.236800
     13 N9           1.8230     5.4360    -0.4030 na         1 101      -0.223000
     14 C8           2.3380     5.6000     0.8490 cc         1 101       0.466700
     15 N7           3.4530     6.2710     0.7870 nd         1 101      -0.636100
     16 C5           3.7240     6.5740    -0.5050 ca         1 101      -0.202200
     17 C6           4.7530     7.2700    -1.1620 ca         1 101       0.769200
     18 N6           5.8060     7.8160    -0.4470 nv         1 101      -1.004500
     19 N1           4.6950     7.3880    -2.4840 nb         1 101      -0.855000
     20 C2           3.6940     6.8700    -3.1740 ca         1 101       0.707900
     21 N3           2.7060     6.2150    -2.6010 nb         1 101      -0.769000
     22 C4           2.6790     6.0470    -1.2830 ca         1 101       0.466800
     23 HO5'        -2.8550     3.8260     2.9790 ho         1 101       0.382000
     24 H5'1        -0.7560     3.1670     2.4600 h1         1 101       0.074700
     25 H5'2        -1.9150     2.0600     1.7090 h1         1 101       0.074700
     26 H3'          0.6810     2.1280     0.7210 h1         1 101       0.100700
     27 H2'1         1.9490     3.0700    -1.0050 hc         1 101       0.075700
     28 H2'2         0.5690     3.0710    -2.1360 hc         1 101       0.075700
     29 H1'          0.0890     5.2320    -1.5700 h2         1 101       0.065700
     30 H8           1.8870     5.2290     1.7610 h5         1 101       0.098800
     31 HN61         6.6070     8.1700    -0.9300 hn         1 101       0.437800
     32 HN62         5.7770     7.8310     0.5530 hn         1 101       0.437800
     33 H2           3.6860     6.9900    -4.2500 h5         1 101       0.044100
     34 H4'         -1.8130     3.5090    -0.3810 h1         1 101       0.061700
@<TRIPOS>BOND
     1     1     2 1   
     2     1     3 1   
     3     1     4 1   
     4     1    10 1   
     5     5     6 1   
     6     5    23 1   
     7     6     7 1   
     8     6    24 1   
     9     6    25 1   
    10     7     8 1   
    11     7     9 1   
    12     7    34 1   
    13     8    12 1   
    14     9    10 1   
    15     9    11 1   
    16     9    26 1   
    17    11    12 1   
    18    11    27 1   
    19    11    28 1   
    20    12    13 1   
    21    12    29 1   
    22    13    14 1   
    23    13    22 1   
    24    14    15 2   
    25    14    30 1   
    26    15    16 1   
    27    16    17 ar  
    28    16    22 ar  
    29    17    18 1   
    30    17    19 ar  
    31    18    31 1   
    32    18    32 1   
    33    19    20 ar  
    34    20    21 ar  
    35    20    33 1   
    36    21    22 ar  
@<TRIPOS>SUBSTRUCTURE
     1 101         1 TEMP              0 ****  ****    0 ROOT
