@<TRIPOS>MOLECULE
101
   34    36     1     0     0
SMALL
bcc


@<TRIPOS>ATOM
      1 P            1.8060     0.5450    -0.7020 p5         1 101       1.325900
      2 O1P          2.3580     1.6370    -1.5950 o          1 101      -0.924167
      3 O2P          2.0780     0.6640     0.7640 o          1 101      -0.924167
      4 O3P          1.8040    -0.8180    -1.3260 o          1 101      -0.924167
      5 O5'          1.3430     2.9330    -3.8330 oh         1 101      -0.688800
      6 C5'          0.5990     3.6090    -2.8460 c3         1 101       0.161400
      7 C4'         -0.5520     2.7980    -2.2600 c3         1 101       0.050100
      8 O4'         -1.7360     2.9510    -3.0810 os         1 101      -0.448600
      9 C3'         -0.2650     1.2760    -2.0920 c3         1 101       0.240100
     10 O3'          0.1000     0.9710    -0.8190 os         1 101      -0.537200
     11 C2'         -1.6130     0.6330    -2.4980 c3         1 101      -0.149400
     12 C1'         -2.2890     1.6780    -3.4040 c3         1 101       0.250800
     13 N9          -2.1070     1.4290    -4.8360 na         1 101      -0.251000
     14 C8          -0.9070     1.5530    -5.5680 cc         1 101       0.465700
     15 N7          -1.0460     1.2980    -6.8840 nd         1 101      -0.607100
     16 C5          -2.4020     0.9940    -7.0530 ca         1 101      -0.198200
     17 C6          -3.1800     0.6220    -8.1900 ca         1 101       0.684200
     18 N6          -2.5920     0.6070    -9.4600 nv         1 101      -0.924500
     19 N1          -4.5120     0.3450    -8.0320 nb         1 101      -0.803000
     20 C2          -5.0290     0.4770    -6.7770 ca         1 101       0.635900
     21 N3          -4.4330     0.8260    -5.6180 nb         1 101      -0.710000
     22 C4          -3.0950     1.0810    -5.7610 ca         1 101       0.429800
     23 HO5'         1.9630     2.3380    -3.3520 ho         1 101       0.494000
     24 H5'1         0.1940     4.5280    -3.3520 h1         1 101       0.035700
     25 H5'2         1.2740     3.8870    -1.9900 h1         1 101       0.035700
     26 H3'          0.5230     0.9540    -2.8360 h1         1 101       0.056700
     27 H2'1        -1.4480    -0.3490    -2.9940 hc         1 101       0.062700
     28 H2'2        -2.2460     0.4760    -1.5920 hc         1 101       0.062700
     29 H1'         -3.4010     1.7620    -3.2310 h2         1 101       0.068700
     30 H8           0.0320     1.8470    -5.0450 h5         1 101       0.143800
     31 HN61        -3.0360     0.0250   -10.1340 hn         1 101       0.401300
     32 HN62        -1.6000     0.5260    -9.4380 hn         1 101       0.401300
     33 H2          -6.1140     0.2550    -6.7030 h5         1 101       0.026100
     34 H4'         -0.8340     3.2350    -1.2630 h1         1 101       0.057700
@<TRIPOS>BOND
     1     1     2 1   
     2     1     3 1   
     3     1     4 1   
     4     1    10 1   
     5     5     6 1   
     6     5    23 1   
     7     6     7 1   
     8     6    24 1   
     9     6    25 1   
    10     7     8 1   
    11     7     9 1   
    12     7    34 1   
    13     8    12 1   
    14     9    10 1   
    15     9    11 1   
    16     9    26 1   
    17    11    12 1   
    18    11    27 1   
    19    11    28 1   
    20    12    13 1   
    21    12    29 1   
    22    13    14 1   
    23    13    22 1   
    24    14    15 2   
    25    14    30 1   
    26    15    16 1   
    27    16    17 ar  
    28    16    22 ar  
    29    17    18 1   
    30    17    19 ar  
    31    18    31 1   
    32    18    32 1   
    33    19    20 ar  
    34    20    21 ar  
    35    20    33 1   
    36    21    22 ar  
@<TRIPOS>SUBSTRUCTURE
     1 101         1 TEMP              0 ****  ****    0 ROOT
