@<TRIPOS>MOLECULE
102
   46    48     1     0     0
SMALL
bcc


@<TRIPOS>ATOM
      1 PG         -1.2030   -1.0800   -0.9900 p5        1 102      1.553200
      2 S1G        -0.3720    0.2970    0.0110 s         1 102     -0.798000
      3 O2G        -2.1780   -1.8650    0.0080 oh        1 102     -0.783400
      4 O3G        -2.2450   -0.5850   -2.0720 oh        1 102     -0.783400
      5 O3B        -0.4160   -2.1700   -1.7130 os        1 102     -0.779800
      6 PB          0.4240   -3.4820   -2.5370 p5        1 102      1.702800
      7 O1B         1.3810   -2.7980   -3.4020 o         1 102     -0.846000
      8 O2B         0.7340   -4.4290   -1.4680 o         1 102     -0.846000
      9 O3A        -0.8690   -3.9700   -3.3910 os        1 102     -0.811800
     10 PA         -2.2070   -4.3220   -4.2120 p5        1 102      1.615800
     11 O1A        -2.0240   -4.2980   -5.6710 o         1 102     -0.880500
     12 O2A        -3.0290   -5.3750   -3.5710 o         1 102     -0.880500
     13 O5'        -3.0580   -2.9210   -3.8190 os        1 102     -0.600200
     14 C5'        -4.1540   -2.6260   -4.6130 c3        1 102      0.197400
     15 C4'        -5.4560   -3.1440   -3.9660 c3        1 102      0.058100
     16 O4'        -6.5630   -2.4390   -4.5700 os        1 102     -0.411600
     17 C3'        -5.6720   -4.6530   -4.2120 c3        1 102      0.092100
     18 O3'        -5.8290   -5.3380   -2.9870 oh        1 102     -0.661800
     19 C2'        -6.9870   -4.7490   -5.0110 c3        1 102      0.113100
     20 O2'        -7.8210   -5.8220   -4.6690 oh        1 102     -0.593800
     21 C1'        -7.6400   -3.3340   -4.8270 c3        1 102      0.208800
     22 N9         -8.6320   -3.2690   -3.7660 na        1 102     -0.185900
     23 C8         -8.4890   -3.6950   -2.4250 cc        1 102      0.428400
     24 N7         -9.5990   -3.5060   -1.6830 nd        1 102     -0.618000
     25 C5        -10.5200   -2.9290   -2.5580 cd        1 102      0.189800
     26 C6        -11.8830   -2.4970   -2.3400 c         1 102      0.648000
     27 O6        -12.5620   -2.5540   -1.3010 o         1 102     -0.632500
     28 N1        -12.5100   -1.9510   -3.4910 n         1 102     -0.501400
     29 C2        -11.8420   -1.8140   -4.7250 cd        1 102      0.621800
     30 N2        -12.5690   -1.1450   -5.7660 nh        1 102     -0.870800
     31 N3        -10.5850   -2.2280   -4.9650 nc        1 102     -0.635100
     32 C4         -9.9300   -2.7640   -3.8670 cc        1 102      0.086800
     33 HOG2       -2.0410   -1.7310    0.9420 ho        1 102      0.498000
     34 HOG3       -2.5720   -1.2300   -2.7090 ho        1 102      0.498000
     35 H5'1       -4.0250   -3.0730   -5.6380 h1        1 102      0.039700
     36 H5'2       -4.2340   -1.5060   -4.7000 h1        1 102      0.039700
     37 H4'        -5.4600   -2.9160   -2.8670 h1        1 102      0.081700
     38 H3'        -4.7950   -5.0830   -4.7800 h1        1 102      0.125700
     39 HO3'       -4.9320   -5.6340   -2.7290 ho        1 102      0.494000
     40 H2'        -6.7720   -4.8760   -6.1080 h1        1 102      0.084700
     41 HO2'       -7.6960   -6.0120   -3.7270 ho        1 102      0.430000
     42 H1'        -8.1240   -2.9660   -5.7760 h2        1 102      0.099700
     43 H8         -7.5350   -4.1340   -2.0800 h5        1 102      0.107100
     44 HN1       -13.4190   -1.5630   -3.3780 hn        1 102      0.325500
     45 HN21      -12.0040   -0.9950   -6.5790 hn        1 102      0.390800
     46 HN22      -13.4100   -1.6340   -5.9980 hn        1 102      0.390800
@<TRIPOS>BOND
     1    1    2 2
     2    1    3 1
     3    1    4 1
     4    1    5 1
     5    3   33 1
     6    4   34 1
     7    5    6 1
     8    6    7 1
     9    6    8 1
    10    6    9 1
    11    9   10 1
    12   10   11 1
    13   10   12 1
    14   10   13 1
    15   13   14 1
    16   14   15 1
    17   14   35 1
    18   14   36 1
    19   15   16 1
    20   15   17 1
    21   15   37 1
    22   16   21 1
    23   17   18 1
    24   17   19 1
    25   17   38 1
    26   18   39 1
    27   19   20 1
    28   19   21 1
    29   19   40 1
    30   20   41 1
    31   21   22 1
    32   21   42 1
    33   22   23 1
    34   22   32 1
    35   23   24 2
    36   23   43 1
    37   24   25 1
    38   25   26 1
    39   25   32 2
    40   26   27 2
    41   26   28 1
    42   28   29 1
    43   28   44 1
    44   29   30 1
    45   29   31 2
    46   30   45 1
    47   30   46 1
    48   31   32 1
@<TRIPOS>SUBSTRUCTURE
     1 102         1 TEMP              0 ****  ****    0 ROOT
