@<TRIPOS>MOLECULE
103
   33    35     1     0     0
SMALL
bcc


@<TRIPOS>ATOM
      1 P           -0.3690     1.1850     1.7050 p5         1 103       1.308900
      2 O1P          0.9630     1.8840     1.7140 o          1 103      -0.923500
      3 O2P         -1.5360     2.0610     2.0800 o          1 103      -0.923500
      4 O3P         -0.4100    -0.2540     2.1140 o          1 103      -0.923500
      5 C5'         -2.7230     3.7720    -0.3360 c3         1 103      -0.119100
      6 C4'         -2.0150     2.7510    -1.1900 c3         1 103       0.083100
      7 O4'         -1.8070     3.2800    -2.5250 os         1 103      -0.450600
      8 C3'         -0.6290     2.3490    -0.5960 c3         1 103       0.239100
      9 O3'         -0.6480     1.1110    -0.0410 os         1 103      -0.531200
     10 C2'          0.3100     2.4210    -1.8260 c3         1 103      -0.156400
     11 C1'         -0.4200     3.3230    -2.8360 c3         1 103       0.245800
     12 N9           0.0590     4.7100    -2.8130 na         1 103      -0.248000
     13 C8           0.2820     5.5010    -1.6660 cc         1 103       0.457700
     14 N7           0.6470     6.7690    -1.9380 nd         1 103      -0.600100
     15 C5           0.6580     6.8480    -3.3360 ca         1 103      -0.205200
     16 C6           0.9740     7.9010    -4.2460 ca         1 103       0.691200
     17 N6           1.2540     9.1810    -3.7590 nv         1 103      -0.928500
     18 N1           0.9400     7.6570    -5.5930 nb         1 103      -0.805000
     19 C2           0.5630     6.4070    -5.9880 ca         1 103       0.638900
     20 N3           0.2250     5.3240    -5.2580 nb         1 103      -0.707000
     21 C4           0.2760     5.5510    -3.9090 ca         1 103       0.436800
     22 H5'1        -3.7680     3.9350    -0.6910 hc         1 103       0.046700
     23 H5'2        -2.1880     4.7510    -0.3640 hc         1 103       0.046700
     24 H5'3        -2.7240     3.3820     0.7230 hc         1 103       0.046700
     25 H3'         -0.3110     3.1300     0.1590 h1         1 103       0.053700
     26 H2'1         1.3150     2.7970    -1.5290 hc         1 103       0.065200
     27 H2'2         0.4250     1.4030    -2.2690 hc         1 103       0.065200
     28 H1'         -0.3280     2.9750    -3.9050 h2         1 103       0.071700
     29 H8           0.1660     5.0600    -0.6570 h5         1 103       0.120800
     30 HN61         1.5340     9.1970    -2.8030 hn         1 103       0.404800
     31 HN62         1.7830     9.7720    -4.3580 hn         1 103       0.404800
     32 H2           0.5360     6.2630    -7.0880 h5         1 103       0.026100
     33 H4'         -2.6490     1.8360    -1.3330 h1         1 103       0.066700
@<TRIPOS>BOND
     1     1     2 1   
     2     1     3 1   
     3     1     4 1   
     4     1     9 1   
     5     5     6 1   
     6     5    22 1   
     7     5    23 1   
     8     5    24 1   
     9     6     7 1   
    10     6     8 1   
    11     6    33 1   
    12     7    11 1   
    13     8     9 1   
    14     8    10 1   
    15     8    25 1   
    16    10    11 1   
    17    10    26 1   
    18    10    27 1   
    19    11    12 1   
    20    11    28 1   
    21    12    13 1   
    22    12    21 1   
    23    13    14 2   
    24    13    29 1   
    25    14    15 1   
    26    15    16 ar  
    27    15    21 ar  
    28    16    17 1   
    29    16    18 ar  
    30    17    30 1   
    31    17    31 1   
    32    18    19 ar  
    33    19    20 ar  
    34    19    32 1   
    35    20    21 ar  
@<TRIPOS>SUBSTRUCTURE
     1 103         1 TEMP              0 ****  ****    0 ROOT
