@<TRIPOS>MOLECULE
molecule
   33    35     1     0     0
SMALL
bcc


@<TRIPOS>ATOM
      1 P            0.0000     0.0000     0.0000 p5         1 103       1.131900
      2 O1P          1.4790     0.0000     0.0000 o          1 103      -0.899833
      3 O2P         -0.5360     0.0000     1.5180 o          1 103      -0.899833
      4 O3P         -0.5350    -1.3140    -0.7590 o          1 103      -0.899833
      5 C5'          2.2470     2.2960    -2.3420 c3         1 103      -0.105100
      6 C4'          0.7420     2.5440    -2.4530 c3         1 103       0.089100
      7 O4'          0.4060     2.8910    -3.8010 os         1 103      -0.443600
      8 C3'         -0.0280     1.2560    -2.0940 c3         1 103       0.171100
      9 O3'         -0.5360     1.3130    -0.7600 os         1 103      -0.511200
     10 C2'         -1.1880     1.2690    -3.1290 c3         1 103      -0.134400
     11 C1'         -0.4860     1.9090    -4.3510 c3         1 103       0.232800
     12 N9           0.2680     0.8980    -5.0940 na         1 103      -0.238000
     13 C8           1.6020     0.6450    -4.9850 cc         1 103       0.460700
     14 N7           1.9400    -0.3190    -5.7910 nd         1 103      -0.627100
     15 C5           0.8460    -0.7460    -6.4660 ca         1 103      -0.195200
     16 C6           0.6070    -1.7310    -7.4390 ca         1 103       0.772200
     17 N6           1.6380    -2.5260    -7.9100 nv         1 103      -1.002500
     18 N1          -0.6310    -1.8820    -7.8970 nb         1 103      -0.858000
     19 C2          -1.6200    -1.1290    -7.4540 ca         1 103       0.707900
     20 N3          -1.4430    -0.1930    -6.5440 nb         1 103      -0.777000
     21 C4          -0.2410     0.0250    -6.0240 ca         1 103       0.468800
     22 H5'1         2.6040     2.6610    -1.3860 hc         1 103       0.043367
     23 H5'2         2.4460     1.2340    -2.4190 hc         1 103       0.043367
     24 H5'3         2.7590     2.8180    -3.1410 hc         1 103       0.043367
     25 H3'          0.5990     0.3840    -2.2350 h1         1 103       0.100700
     26 H2'1        -2.0080     1.8880    -2.7840 hc         1 103       0.078700
     27 H2'2        -1.5180     0.2620    -3.3550 hc         1 103       0.078700
     28 H1'         -1.2170     2.3870    -4.9930 h2         1 103       0.075700
     29 H8           2.2830     1.1710    -4.3270 h5         1 103       0.104800
     30 HN61         1.4640    -3.1940    -8.6340 hn         1 103       0.437300
     31 HN62         2.5610    -2.4200    -7.5380 hn         1 103       0.437300
     32 H2          -2.6110    -1.2780    -7.8660 h5         1 103       0.040100
     33 H4'          0.4470     3.3440    -1.7850 h1         1 103       0.072700
@<TRIPOS>BOND
     1     1     2 1
     2     1     3 1
     3     1     4 1
     4     1     9 1
     5     5     6 1
     6     5    22 1
     7     5    23 1
     8     5    24 1
     9     6     7 1
    10     6     8 1
    11     6    33 1
    12     7    11 1
    13     8     9 1
    14     8    10 1
    15     8    25 1
    16    10    11 1
    17    10    26 1
    18    10    27 1
    19    11    12 1
    20    11    28 1
    21    12    13 1
    22    12    21 1
    23    13    14 2
    24    13    29 1
    25    14    15 1
    26    15    16 ar
    27    15    21 ar
    28    16    17 1
    29    16    18 ar
    30    17    30 1
    31    17    31 1
    32    18    19 ar
    33    19    20 ar
    34    19    32 1
    35    20    21 ar
@<TRIPOS>SUBSTRUCTURE
     1 103         1 TEMP              0 ****  ****    0 ROOT
