@<TRIPOS>MOLECULE
molecule
   30    29     1     0     0
SMALL
bcc


@<TRIPOS>ATOM
      1 N1           0.0000     0.0000     0.0000 nz         1 104      -0.809600
      2 C2           1.4690     0.0000     0.0000 c3         1 104       0.090800
      3 C3           1.9800     0.0000     1.4410 c3         1 104       0.124800
      4 N4           3.4490    -0.0000     1.4410 n7         1 104      -0.785200
      5 C5           3.8730     0.0000     2.8470 c3         1 104       0.145800
      6 C6           5.3990    -0.0010     2.9200 c3         1 104       0.145800
      7 N7           5.8230     0.0000     4.3260 n7         1 104      -0.785200
      8 C8           7.2920    -0.0010     4.3260 c3         1 104       0.124800
      9 C9           7.8030    -0.0010     5.7670 c3         1 104       0.090800
     10 N10          9.2720    -0.0010     5.7670 nz         1 104      -0.809600
     11 H11         -0.3340     0.0010    -0.9440 hn         1 104       0.462967
     12 H12         -0.3340     0.8160     0.4730 hn         1 104       0.462967
     13 H21          1.8300    -0.8840    -0.5110 hx         1 104       0.121700
     14 H22          1.8300     0.8840    -0.5110 hx         1 104       0.121700
     15 H31          1.6200     0.8840     1.9520 h1         1 104       0.058700
     16 H32          1.6200    -0.8840     1.9520 h1         1 104       0.058700
     17 HN4          3.7830    -0.8300     0.9920 hn         1 104       0.368800
     18 H51          3.4870    -0.8840     3.3400 h1         1 104       0.057450
     19 H52          3.4890     0.8850     3.3400 h1         1 104       0.057450
     20 H61          5.7840    -0.8860     2.4280 h1         1 104       0.057450
     21 H62          5.7850     0.8830     2.4260 h1         1 104       0.057450
     22 HN7          5.4900     0.8310     4.7740 hn         1 104       0.368800
     23 H81          7.6520    -0.8860     3.8150 h1         1 104       0.058700
     24 H82          7.6530     0.8830     3.8140 h1         1 104       0.058700
     25 H91          7.4430     0.8840     6.2780 hx         1 104       0.121700
     26 H92          7.4430    -0.8850     6.2780 hx         1 104       0.121700
     27 H101         9.6060     0.8170     5.2970 hn         1 104       0.462967
     28 H102         9.6060    -0.8170     5.2940 hn         1 104       0.462967
     29 H13         -0.3340    -0.8260     0.4570 hn         1 104       0.462967
     30 H103         9.6060     0.0140     6.7100 hn         1 104       0.462967
@<TRIPOS>BOND
     1     1     2 1   
     2     1    11 1   
     3     1    12 1   
     4     2     3 1   
     5     2    13 1   
     6     2    14 1   
     7     3     4 1   
     8     3    15 1   
     9     3    16 1   
    10     4     5 1   
    11     4    17 1   
    12     5     6 1   
    13     5    18 1   
    14     5    19 1   
    15     6     7 1   
    16     6    20 1   
    17     6    21 1   
    18     7     8 1   
    19     7    22 1   
    20     8     9 1   
    21     8    23 1   
    22     8    24 1   
    23     9    10 1   
    24     9    25 1   
    25     9    26 1   
    26    10    27 1   
    27    10    28 1   
    28    29     1 1   
    29    30    10 1   
@<TRIPOS>SUBSTRUCTURE
     1 104         1 TEMP              0 ****  ****    0 ROOT
