@<TRIPOS>MOLECULE
104
   32    31     1     0     0
SMALL
bcc


@<TRIPOS>ATOM
      1 N1           0.2080     0.3270    -0.7460 nz         1 104      -0.836600
      2 C2           1.0960    -0.4470     0.1600 c3         1 104       0.077800
      3 C3           1.2140     0.1620     1.5820 c3         1 104       0.081800
      4 N4           2.1220    -0.6480     2.4700 ny         1 104      -0.759000
      5 C5           2.2270    -0.0510     3.8430 c3         1 104       0.082800
      6 C6           3.1590    -0.8640     4.7850 c3         1 104       0.082800
      7 N7           3.2640    -0.2680     6.1580 ny         1 104      -0.759000
      8 C8           4.1740    -1.0760     7.0460 c3         1 104       0.081800
      9 C9           4.2890    -0.4690     8.4690 c3         1 104       0.077800
     10 N10          5.1800    -1.2410     9.3730 nz         1 104      -0.836600
     11 H11          0.5520     1.2880    -0.8910 hn         1 104       0.502467
     12 H12          0.1830    -0.1450    -1.6730 hn         1 104       0.502467
     13 H21          2.1180    -0.4950    -0.3310 hx         1 104       0.148700
     14 H22          0.6810    -1.5010     0.2190 hx         1 104       0.148700
     15 H31          0.1950     0.2030     2.0740 hx         1 104       0.145700
     16 H32          1.6340     1.2120     1.5240 hx         1 104       0.145700
     17 HN4          3.0600    -0.6950     2.0400 hn         1 104       0.482800
     18 H51          2.6180     1.0060     3.7270 hx         1 104       0.145700
     19 H52          1.1820    -0.0040     4.2770 hx         1 104       0.145700
     20 H61          4.2050    -0.9110     4.3520 hx         1 104       0.145700
     21 H62          2.7690    -1.9210     4.9010 hx         1 104       0.145700
     22 HN7          3.6300     0.6960     6.0900 hn         1 104       0.482800
     23 H81          5.1930    -1.1140     6.5540 hx         1 104       0.145700
     24 H82          3.7570    -2.1270     7.1030 hx         1 104       0.145700
     25 H91          3.2670    -0.4260     8.9590 hx         1 104       0.148700
     26 H92          4.7010     0.5870     8.4110 hx         1 104       0.148700
     27 H101         4.8390    -2.2040     9.5160 hn         1 104       0.502467
     28 H102         5.2020    -0.7710    10.3020 hn         1 104       0.502467
     29 H13         -0.7590     0.3700    -0.3890 hn         1 104       0.502467
     30 H103         6.1470    -1.2800     9.0170 hn         1 104       0.502467
     31 H42          1.7540    -1.6110     2.5390 hn         1 104       0.482800
     32 H72          2.3260    -0.2230     6.5890 hn         1 104       0.482800
@<TRIPOS>BOND
     1     1     2 1   
     2     1    11 1   
     3     1    12 1   
     4     1    29 1   
     5     2     3 1   
     6     2    13 1   
     7     2    14 1   
     8     3     4 1   
     9     3    15 1   
    10     3    16 1   
    11     4     5 1   
    12     4    17 1   
    13     4    31 1   
    14     5     6 1   
    15     5    18 1   
    16     5    19 1   
    17     6     7 1   
    18     6    20 1   
    19     6    21 1   
    20     7     8 1   
    21     7    22 1   
    22     7    32 1   
    23     8     9 1   
    24     8    23 1   
    25     8    24 1   
    26     9    10 1   
    27     9    25 1   
    28     9    26 1   
    29    10    27 1   
    30    10    28 1   
    31    10    30 1   
@<TRIPOS>SUBSTRUCTURE
     1 104         1 TEMP              0 ****  ****    0 ROOT
