@<TRIPOS>MOLECULE
106
   33    35     1     0     0
SMALL
bcc


@<TRIPOS>ATOM
      1 N1         -0.0870   -0.8830    0.1520 nc        1 106     -0.246400
      2 C2          1.3590   -1.0320    0.3530 c         1 106      0.682700
      3 C3          1.6830   -0.4940    1.7680 cc        1 106     -0.057600
      4 C4          0.1030    0.5040    3.5470 ca        1 106     -0.124000
      5 C5         -1.2060    0.8090    3.7710 ca        1 106      0.037100
      6 C6         -2.2280    0.5560    2.7700 ca        1 106     -0.094000
      7 C7         -1.9420    0.0090    1.5690 ca        1 106     -0.093000
      8 C8         -0.5710   -0.3470    1.2470 ca        1 106      0.042000
      9 C9          0.4870   -0.0780    2.3050 ca        1 106      0.017000
     10 O11         2.1550   -1.4960   -0.4480 o         1 106     -0.404100
     11 N12         3.0090   -0.5110    2.1990 ne        1 106     -0.102600
     12 BR4        -1.7500    1.5710    5.3850 br        1 106     -0.020100
     13 N17         3.3050   -0.1750    3.3500 nf        1 106     -0.243400
     14 C19         4.6790   -0.1660    3.7420 ca        1 106      0.272400
     15 C20         5.0370   -0.8120    4.9510 ca        1 106     -0.149500
     16 C21         6.3290   -0.7150    5.4290 ca        1 106      0.020000
     17 C22         7.3290    0.0140    4.7420 ca        1 106     -0.584500
     18 C23         6.9500    0.6600    3.5410 ca        1 106      0.020000
     19 C24         5.6640    0.5730    3.0440 ca        1 106     -0.149500
     20 S27         8.7930    0.1700    5.3370 sy        1 106      1.500200
     21 O28         8.9520   -0.2290    6.6470 o         1 106     -0.569300
     22 O29         9.5600    1.1740    4.7870 o         1 106     -0.569300
     23 N30         9.5960   -1.3530    4.4500 n4        1 106     -0.785500
     24 H4          0.8840    0.6950    4.3020 ha        1 106      0.173000
     25 H6         -3.2690    0.8290    3.0230 ha        1 106      0.174000
     26 H7         -2.7190   -0.1830    0.8090 ha        1 106      0.182000
     27 H20         4.2840   -1.3880    5.5170 ha        1 106      0.185000
     28 H21         6.5880   -1.2090    6.3860 ha        1 106      0.169500
     29 H23         7.7030    1.2590    2.9930 ha        1 106      0.169500
     30 H24         5.4070    1.0850    2.0990 ha        1 106      0.185000
     31 H301        9.9570   -2.0110    5.1380 hn        1 106      0.453800
     32 H302        8.9360   -1.8470    3.8580 hn        1 106      0.453800
     33 H303       10.3760   -1.0510    3.8700 hn        1 106      0.453800
@<TRIPOS>BOND
     1    1    2 1   
     2    1    8 2   
     3    2    3 1   
     4    2   10 2   
     5    3    9 2   
     6    3   11 1   
     7    4    5 ar  
     8    4    9 ar  
     9    4   24 1   
    10    5    6 ar  
    11    5   12 1   
    12    6    7 ar  
    13    6   25 1   
    14    7    8 ar  
    15    7   26 1   
    16    8    9 ar  
    17   11   13 2   
    18   13   14 1   
    19   14   15 ar  
    20   14   19 ar  
    21   15   16 ar  
    22   15   27 1   
    23   16   17 ar  
    24   16   28 1   
    25   17   18 ar  
    26   17   20 1   
    27   18   19 ar  
    28   18   29 1   
    29   19   30 1   
    30   20   21 2   
    31   20   22 2   
    32   20   23 1   
    33   23   31 1   
    34   23   32 1   
    35   23   33 1   
@<TRIPOS>SUBSTRUCTURE
     1 106         1 TEMP              0 ****  ****    0 ROOT
