@<TRIPOS>MOLECULE
106
   35    37     1     0     0
SMALL
bcc


@<TRIPOS>ATOM
      1 N1           0.3090    -0.8170     0.2020 ns         1 106      -0.453100
      2 C2           1.6550    -0.4460     0.2050 c          1 106       0.597200
      3 C3           1.9550     0.2150     1.5600 cc         1 106       0.401900
      4 C4           0.3210     0.6180     3.5460 ca         1 106      -0.012000
      5 C5          -1.0080     0.4360     3.9690 ca         1 106      -0.067900
      6 C6          -1.9440    -0.1770     3.1330 ca         1 106      -0.037000
      7 C7          -1.6010    -0.6310     1.8530 ca         1 106      -0.156000
      8 C8          -0.2890    -0.4560     1.4260 ca         1 106       0.083600
      9 C9           0.6770     0.1760     2.2880 ca         1 106      -0.204900
     10 O11          2.4700    -0.6160    -0.7100 o          1 106      -0.604500
     11 N12          3.0760     0.7140     2.0020 n2         1 106      -0.377400
     12 Br4         -1.5160     1.0230     5.6690 br         1 106      -0.049100
     13 N17          4.1810     0.6930     1.2440 nu         1 106      -0.410700
     14 C19          5.3710     1.2330     1.6760 ca         1 106       0.329600
     15 C20          6.5060     1.1810     0.8000 ca         1 106      -0.213500
     16 C21          7.7080     1.7060     1.1910 ca         1 106       0.050000
     17 C22          7.8980     2.3140     2.4630 ca         1 106      -0.659500
     18 C23          6.7610     2.3630     3.3170 ca         1 106       0.050000
     19 C24          5.5440     1.8470     2.9570 ca         1 106      -0.213500
     20 S27          9.2570     2.9820     2.8640 sy         1 106       1.518200
     21 O28          9.2280     3.8220     3.9570 o          1 106      -0.580800
     22 O29         10.1740     3.1590     1.8490 o          1 106      -0.580800
     23 N30         10.0790     1.4170     3.7260 nz         1 106      -0.779500
     24 H4           1.0630     1.1020     4.2020 ha         1 106       0.164000
     25 H6          -2.9850    -0.3140     3.4760 ha         1 106       0.166000
     26 H7          -2.3570    -1.1090     1.2140 ha         1 106       0.163000
     27 H20          6.4100     0.7260    -0.2010 ha         1 106       0.181000
     28 H21          8.5650     1.6760     0.4890 ha         1 106       0.165500
     29 H23          6.8660     2.8560     4.3040 ha         1 106       0.165500
     30 H24          4.6930     1.9180     3.6570 ha         1 106       0.181000
     31 H301        10.2990     1.6290     4.6950 hn         1 106       0.445800
     32 H302        10.9430     1.1730     3.2530 hn         1 106       0.445800
     33 H1          -0.1620    -1.2570    -0.5480 hn         1 106       0.364500
     34 H2           4.1570     0.2980     0.3100 hn         1 106       0.481800
     35 H303         9.4670     0.6110     3.7080 hn         1 106       0.445800
@<TRIPOS>BOND
     1     1     2 1   
     2     1     8 1   
     3     1    33 1   
     4     2     3 1   
     5     2    10 2   
     6     3     9 1   
     7     3    11 2   
     8     4     5 ar  
     9     4     9 ar  
    10     4    24 1   
    11     5     6 ar  
    12     5    12 1   
    13     6     7 ar  
    14     6    25 1   
    15     7     8 ar  
    16     7    26 1   
    17     8     9 ar  
    18    11    13 1   
    19    13    14 1   
    20    13    34 1   
    21    14    15 ar  
    22    14    19 ar  
    23    15    16 ar  
    24    15    27 1   
    25    16    17 ar  
    26    16    28 1   
    27    17    18 ar  
    28    17    20 1   
    29    18    19 ar  
    30    18    29 1   
    31    19    30 1   
    32    20    21 2   
    33    20    22 2   
    34    20    23 1   
    35    23    31 1   
    36    23    32 1   
    37    23    35 1   
@<TRIPOS>SUBSTRUCTURE
     1 106         1 TEMP              0 ****  ****    0 ROOT
