@<TRIPOS>MOLECULE
107
   46    50     1     0     0
SMALL
bcc


@<TRIPOS>ATOM
      1 O1          0.2700   -1.2390   -0.0670 o         1 107     -0.461100
      2 C2          1.4310   -0.8450   -0.0360 c         1 107      0.674700
      3 N3          2.2210   -0.5930    1.1710 nc        1 107     -0.305400
      4 C4          3.4090   -0.2070    0.7630 ca        1 107      0.083000
      5 C5          4.5690    0.1590    1.5550 ca        1 107     -0.137000
      6 C6          5.7260    0.5240    0.9620 ca        1 107     -0.025000
      7 C7          5.8490    0.5640   -0.4820 ca        1 107      0.083400
      8 N8          7.0100    0.9190   -1.1600 nc        1 107     -0.499100
      9 C9          6.7840    0.8490   -2.4690 cd        1 107      0.300100
     10 S10         5.2150    0.3680   -2.9300 ss        1 107      0.117900
     11 C11         4.7600    0.2290   -1.3260 ca        1 107     -0.131100
     12 C12         3.5210   -0.1610   -0.7590 ca        1 107     -0.026000
     13 C13         2.3130   -0.5390   -1.2540 cc        1 107     -0.189400
     14 C14         1.8660   -0.6110   -2.6610 c3        1 107      0.265000
     15 N15         0.9370   -1.6770   -2.9370 nh        1 107     -0.749600
     16 C16         0.3050   -1.7410   -4.1700 ca        1 107      0.238600
     17 C17        -0.7970   -2.6250   -4.3460 ca        1 107     -0.235000
     18 C18        -1.3870   -2.7620   -5.5870 ca        1 107      0.044000
     19 C19        -0.9400   -2.0390   -6.7040 ca        1 107     -0.455500
     20 C20         0.1430   -1.1660   -6.5270 ca        1 107      0.044000
     21 C21         0.7590   -1.0090   -5.2950 ca        1 107     -0.235000
     22 S22        -1.6380   -2.2510   -8.1960 sy        1 107      1.533200
     23 O23        -0.7540   -1.8560   -9.2120 o         1 107     -0.650800
     24 O24        -2.1420   -3.5710   -8.2940 o         1 107     -0.650800
     25 N25        -2.9890   -1.3000   -8.1610 nh        1 107     -0.859800
     26 C27        -4.3210    2.1590   -8.1540 ca        1 107     -0.058000
     27 C28        -3.1230    2.8610   -8.0210 ca        1 107     -0.285300
     28 C29        -1.9310    2.1220   -7.9340 ca        1 107      0.440200
     29 N30        -1.8670    0.7830   -7.9690 nb        1 107     -0.729000
     30 C31        -3.0470    0.0970   -8.1080 ca        1 107      0.677200
     31 C32        -4.3020    0.7690   -8.1990 ca        1 107     -0.288300
     32 H5          4.4670    0.1250    2.6520 ha        1 107      0.168000
     33 H6          6.6130    0.8020    1.5560 ha        1 107      0.165000
     34 H9          7.5720    1.0870   -3.1920 h5        1 107      0.073800
     35 H141        1.4170    0.3970   -2.9300 h1        1 107      0.059700
     36 H142        2.7740   -0.7570   -3.3250 h1        1 107      0.059700
     37 H15         0.4120   -2.0170   -2.1570 hn        1 107      0.443800
     38 H17        -1.1770   -3.2090   -3.4940 ha        1 107      0.139500
     39 H18        -2.2250   -3.4720   -5.7120 ha        1 107      0.156500
     40 H20         0.5150   -0.5940   -7.3980 ha        1 107      0.156500
     41 H21         1.6060   -0.3140   -5.2080 ha        1 107      0.139500
     42 H25        -3.8880   -1.7290   -8.2010 hn        1 107      0.456800
     43 H28        -3.1030    3.9570   -7.9880 ha        1 107      0.146000
     44 H29        -0.9550    2.6310   -7.8290 h4        1 107      0.022100
     45 H32        -5.2360    0.2010   -8.3060 ha        1 107      0.145000
     46 H27        -5.2780    2.6980   -8.2250 ha        1 107      0.140000
@<TRIPOS>BOND
     1    1    2 2
     2    2    3 1
     3    2   13 1
     4    3    4 2
     5    4    5 ar
     6    4   12 ar
     7    5    6 ar
     8    5   32 1
     9    6    7 ar
    10    6   33 1
    11    7    8 1
    12    7   11 ar
    13    8    9 2
    14    9   10 1
    15    9   34 1
    16   10   11 1
    17   11   12 ar
    18   12   13 2
    19   13   14 1
    20   14   15 1
    21   14   35 1
    22   14   36 1
    23   15   16 1
    24   15   37 1
    25   16   17 ar
    26   16   21 ar
    27   17   18 ar
    28   17   38 1
    29   18   19 ar
    30   18   39 1
    31   19   20 ar
    32   19   22 1
    33   20   21 ar
    34   20   40 1
    35   21   41 1
    36   22   23 2
    37   22   24 2
    38   22   25 1
    39   25   30 1
    40   25   42 1
    41   26   27 ar
    42   26   31 ar
    43   26   46 1
    44   27   28 ar
    45   27   43 1
    46   28   29 ar
    47   28   44 1
    48   29   30 ar
    49   30   31 ar
    50   31   45 1
@<TRIPOS>SUBSTRUCTURE
     1 107         1 TEMP              0 ****  ****    0 ROOT
