@<TRIPOS>MOLECULE
molecule
   32    32     1     0     0
SMALL
bcc


@<TRIPOS>ATOM
      1 C1           0.0000     0.0000     0.0000 ca         1 108      -0.246900
      2 C2           1.3950     0.0000     0.0000 ca         1 108      -0.024000
      3 C3           2.0830     0.0000     1.1930 ca         1 108      -0.087300
      4 C4           1.3880    -0.0060     2.3970 ca         1 108       0.225100
      5 C5          -0.0010    -0.0020     2.4000 ca         1 108      -0.196000
      6 C6          -0.6950    -0.0000     1.2100 ca         1 108      -0.112000
      7 C7           3.5890    -0.0010     1.1960 c3         1 108       0.188100
      8 C8          -0.7410     0.0020    -1.2800 ce         1 108       0.555800
      9 O1           2.0680    -0.0080     3.5710 oh         1 108      -0.418100
     10 N1          -2.1190     0.0020    -1.2780 nz         1 108      -0.801600
     11 N2          -0.0910     0.0030    -2.4090 n2         1 108      -0.704100
     12 N            4.0790     1.1960     1.8880 n7         1 108      -0.742200
     13 CA           5.5460     1.1340     1.8530 c3         1 108       0.039500
     14 CB           6.0570     1.8340     0.5930 c3         1 108      -0.105100
     15 C            6.1080     1.8210     3.0720 c          1 108       0.898600
     16 O            7.4350     1.8880     3.2540 o          1 108      -0.827800
     17 OXT          5.3610     2.3120     3.8850 o          1 108      -0.827800
     18 H2           1.9370    -0.0350    -0.9370 ha         1 108       0.169000
     19 H5          -0.5390     0.0100     3.3400 ha         1 108       0.154000
     20 H6          -1.7770     0.0580     1.2140 ha         1 108       0.091000
     21 H71          3.9480    -0.8870     1.7060 h1         1 108       0.042200
     22 H72          3.9510    -0.0020     0.1750 h1         1 108       0.042200
     23 HO1          1.7120    -0.6700     4.1400 ho         1 108       0.424000
     24 HN11        -2.4520     0.8290    -0.8220 hn         1 108       0.459467
     25 HN12        -2.4550    -0.0160    -2.2210 hn         1 108       0.459467
     26 HN2         -0.5920     0.0050    -3.2760 hn         1 108       0.418400
     27 H            3.7680     2.0140     1.4020 hn         1 108       0.340800
     28 HA           5.8640     0.0980     1.8450 h1         1 108       0.048700
     29 HB1          5.6630     1.3330    -0.2830 hc         1 108       0.027033
     30 HB2          7.1400     1.7970     0.5730 hc         1 108       0.027033
     31 HB3          5.7310     2.8670     0.5950 hc         1 108       0.027033
     32 H13         -2.4530    -0.7970    -0.7770 hn         1 108       0.459467
@<TRIPOS>BOND
     1     1     2 ar  
     2     1     6 ar  
     3     1     8 1   
     4     2     3 ar  
     5     2    18 1   
     6     3     4 ar  
     7     3     7 1   
     8     4     5 ar  
     9     4     9 1   
    10     5     6 ar  
    11     5    19 1   
    12     6    20 1   
    13     7    12 1   
    14     7    21 1   
    15     7    22 1   
    16     8    10 1   
    17     8    11 2   
    18     9    23 1   
    19    10    24 1   
    20    10    25 1   
    21    11    26 1   
    22    12    13 1   
    23    12    27 1   
    24    13    14 1   
    25    13    15 1   
    26    13    28 1   
    27    14    29 1   
    28    14    30 1   
    29    14    31 1   
    30    15    16 1   
    31    15    17 1   
    32    32    10 1   
@<TRIPOS>SUBSTRUCTURE
     1 108         1 TEMP              0 ****  ****    0 ROOT
