@<TRIPOS>MOLECULE
108
   33    33     1     0     0
SMALL
bcc


@<TRIPOS>ATOM
      1 C1           0.4910     0.3420     0.0340 ca         1 108      -0.217900
      2 C2           1.8240     0.7100     0.2270 ca         1 108      -0.024000
      3 C3           2.1660     1.6300     1.2200 ca         1 108      -0.193300
      4 C4           1.1330     2.2890     1.9180 ca         1 108       0.199100
      5 C5          -0.2160     2.0140     1.6270 ca         1 108      -0.213000
      6 C6          -0.5350     1.0250     0.7030 ca         1 108       0.003000
      7 C7           3.6010     1.8430     1.5690 c3         1 108       0.184100
      8 C8           0.1790    -0.8250    -0.8320 ce         1 108       0.615800
      9 O1           1.5150     3.1720     2.8900 oh         1 108      -0.498100
     10 N1           0.9910    -2.0280    -0.4230 nz         1 108      -0.902600
     11 N2          -0.6750    -0.7790    -1.7760 n2         1 108      -0.692100
     12 N            4.1370     0.7230     2.4160 ny         1 108      -0.763000
     13 CA           4.7630    -0.4030     1.6310 c3         1 108       0.010500
     14 CB           5.7080    -1.2240     2.4900 c3         1 108      -0.122100
     15 C            3.6460    -1.3280     1.0750 c          1 108       0.907600
     16 O            3.7400    -1.7180    -0.1200 o          1 108      -0.813800
     17 OXT          2.6490    -1.5820     1.8130 o          1 108      -0.813800
     18 H2           2.6250     0.2580    -0.3880 ha         1 108       0.173000
     19 H5          -1.0150     2.5660     2.1450 ha         1 108       0.168000
     20 H6          -1.5920     0.7790     0.5030 ha         1 108       0.170000
     21 H71          3.7150     2.7990     2.1610 hx         1 108       0.112700
     22 H72          4.2290     1.9170     0.6350 hx         1 108       0.112700
     23 HO1          0.7250     3.6180     3.2400 ho         1 108       0.456000
     24 HN11         1.1570    -2.0110     0.6100 hn         1 108       0.481800
     25 HN12         0.5460    -2.9050    -0.6840 hn         1 108       0.481800
     26 HN2         -0.8860    -1.5810    -2.3310 hn         1 108       0.444400
     27 H            3.3610     0.3070     2.9590 hn         1 108       0.456300
     28 HA           5.3270     0.0480     0.7640 hx         1 108       0.109700
     29 HB1          5.1650    -1.7150     3.3340 hc         1 108       0.075700
     30 HB2          6.1440    -2.0270     1.8410 hc         1 108       0.075700
     31 HB3          6.5440    -0.6040     2.8940 hc         1 108       0.075700
     32 H13          1.9430    -1.9810    -0.8480 hn         1 108       0.481800
     33 H21          4.8330     1.0990     3.0640 hn         1 108       0.456300
@<TRIPOS>BOND
     1     1     2 ar  
     2     1     6 ar  
     3     1     8 1   
     4     2     3 ar  
     5     2    18 1   
     6     3     4 ar  
     7     3     7 1   
     8     4     5 ar  
     9     4     9 1   
    10     5     6 ar  
    11     5    19 1   
    12     6    20 1   
    13     7    12 1   
    14     7    21 1   
    15     7    22 1   
    16     8    10 1   
    17     8    11 2   
    18     9    23 1   
    19    10    24 1   
    20    10    25 1   
    21    10    32 1   
    22    11    26 1   
    23    12    13 1   
    24    12    27 1   
    25    12    33 1   
    26    13    14 1   
    27    13    15 1   
    28    13    28 1   
    29    14    29 1   
    30    14    30 1   
    31    14    31 1   
    32    15    16 1   
    33    15    17 1   
@<TRIPOS>SUBSTRUCTURE
     1 108         1 TEMP              0 ****  ****    0 ROOT
