@<TRIPOS>MOLECULE
108
   32    32     1     0     0
SMALL
bcc


@<TRIPOS>ATOM
      1 C1           0.0000     0.0000     0.0000 ca         1 108      -0.292900
      2 C2           1.3950     0.0000     0.0000 ca         1 108      -0.027000
      3 C3           2.0830     0.0000     1.1930 ca         1 108      -0.085300
      4 C4           1.3880    -0.0060     2.3970 ca         1 108       0.247100
      5 C5          -0.0010    -0.0020     2.4000 ca         1 108      -0.173000
      6 C6          -0.6950    -0.0000     1.2100 ca         1 108      -0.071000
      7 C7           3.5890    -0.0010     1.1960 c3         1 108       0.181100
      8 C8          -0.7410     0.0020    -1.2800 ce         1 108       0.233800
      9 O1           2.0680    -0.0080     3.5710 oh         1 108      -0.396100
     10 N1          -2.1190     0.0020    -1.2780 nz         1 108       0.189400
     11 N2          -0.0910     0.0030    -2.4090 n2         1 108      -0.538100
     12 N            4.0790     1.1960     1.8880 n7         1 108      -0.520200
     13 CA           5.5460     1.1340     1.8530 c3         1 108      -0.007500
     14 CB           6.0570     1.8340     0.5930 c3         1 108      -0.007100
     15 C            6.1080     1.8210     3.0720 c          1 108       0.980600
     16 O            7.4350     1.8880     3.2540 o          1 108      -0.877800
     17 OXT          5.3610     2.3120     3.8850 o          1 108      -0.877800
     18 H2           1.9370    -0.0250    -0.9380 ha         1 108       0.111000
     19 H5          -0.5390     0.0020     3.3400 ha         1 108       0.127000
     20 H6          -1.7760     0.0590     1.2140 ha         1 108       0.071000
     21 H71          3.9510    -0.0020     0.1750 h1         1 108       0.014700
     22 H72          3.9480    -0.8870     1.7060 h1         1 108       0.014700
     23 HO1          1.6920    -0.6480     4.1510 ho         1 108       0.401000
     24 HN11        -2.4530    -0.8080    -0.7940 hn         1 108       0.216800
     25 HN12        -2.4520     0.8260    -0.8180 hn         1 108       0.216800
     26 HN2          0.9090     0.0030    -2.4110 hn         1 108       0.385400
     27 H            3.7680     2.0140     1.4020 hn         1 108       0.243800
     28 HA           5.8640     0.0980     1.8450 h1         1 108       0.027700
     29 HB1          5.7360     2.8680     0.5980 hc         1 108      -0.001967
     30 HB2          7.1390     1.7920     0.5700 hc         1 108      -0.001967
     31 HB3          5.6580     1.3360    -0.2830 hc         1 108      -0.001967
     32 H13         -2.4550    -0.0330    -2.2200 hn         1 108       0.216800
@<TRIPOS>BOND
     1     1     2 ar  
     2     1     6 ar  
     3     1     8 1   
     4     2     3 ar  
     5     2    18 1   
     6     3     4 ar  
     7     3     7 1   
     8     4     5 ar  
     9     4     9 1   
    10     5     6 ar  
    11     5    19 1   
    12     6    20 1   
    13     7    12 1   
    14     7    21 1   
    15     7    22 1   
    16     8    10 1   
    17     8    11 2   
    18     9    23 1   
    19    10    24 1   
    20    10    25 1   
    21    10    32 1   
    22    11    26 1   
    23    12    13 1   
    24    12    27 1   
    25    13    14 1   
    26    13    15 1   
    27    13    28 1   
    28    14    29 1   
    29    14    30 1   
    30    14    31 1   
    31    15    16 1   
    32    15    17 1   
@<TRIPOS>SUBSTRUCTURE
     1 108         1 TEMP              0 ****  ****    0 ROOT
