@<TRIPOS>MOLECULE
109
   32    32     1     0     0
SMALL
bcc


@<TRIPOS>ATOM
      1 C1           0.0000     0.0000     0.0000 ca         1 109      -0.240900
      2 C2           1.3920     0.0000     0.0000 ca         1 109      -0.132000
      3 C3           2.0810     0.0000     1.2020 ca         1 109       0.146100
      4 C4           1.3830    -0.0100     2.4020 ca         1 109      -0.020300
      5 C5           0.0010    -0.0110     2.4030 ca         1 109      -0.040000
      6 C6          -0.6940    -0.0060     1.2100 ca         1 109      -0.116000
      7 C7           2.1350    -0.0160     3.7070 c3         1 109       0.173100
      8 C8          -0.7430     0.0040    -1.2810 ce         1 109       0.234800
      9 O1           3.4400     0.0000     1.2070 oh         1 109      -0.472100
     10 N1          -2.1210     0.0050    -1.2800 nz         1 109       0.188400
     11 N2          -0.0950     0.0100    -2.4110 n2         1 109      -0.538100
     12 N            1.1800    -0.0210     4.8220 n7         1 109      -0.597200
     13 CA           1.9720    -0.0270     6.0580 c3         1 109      -0.000500
     14 CB           2.2470     1.4150     6.4930 c3         1 109       0.019900
     15 C            1.2090    -0.7400     7.1420 c          1 109       0.975600
     16 O            1.7430    -0.8680     8.3670 o          1 109      -0.880800
     17 OXT          0.1150    -1.1970     6.9100 o          1 109      -0.880800
     18 H2           1.9340    -0.0820    -0.9350 ha         1 109       0.111000
     19 H5          -0.5380    -0.0090     3.3420 ha         1 109       0.171000
     20 H6          -1.7760    -0.0440     1.2140 ha         1 109       0.080000
     21 H71          2.7570     0.8680     3.7690 h1         1 109       0.035200
     22 H72          2.7570    -0.9010     3.7610 h1         1 109       0.035200
     23 HO1          3.7560     0.7680     0.7610 ho         1 109       0.409000
     24 HN11        -2.4550     0.0160    -2.2230 hn         1 109       0.219467
     25 HN12        -2.4540     0.8160    -0.7980 hn         1 109       0.219467
     26 HN2          0.9060     0.0110    -2.4150 hn         1 109       0.381400
     27 H            0.6220    -0.8510     4.7790 hn         1 109       0.287800
     28 HA           2.9120    -0.5370     5.8830 h1         1 109       0.012700
     29 HB1          1.7920     2.0980     5.7870 hc         1 109      -0.000633
     30 HB2          1.8280     1.5810     7.4780 hc         1 109      -0.000633
     31 HB3          3.3170     1.5850     6.5230 hc         1 109      -0.000633
     32 H13         -2.4540    -0.8170    -0.8160 hn         1 109       0.219467
@<TRIPOS>BOND
     1     1     2 ar  
     2     1     6 ar  
     3     1     8 1   
     4     2     3 ar  
     5     2    18 1   
     6     3     4 ar  
     7     3     9 1   
     8     4     5 ar  
     9     4     7 1   
    10     5     6 ar  
    11     5    19 1   
    12     6    20 1   
    13     7    12 1   
    14     7    21 1   
    15     7    22 1   
    16     8    10 1   
    17     8    11 2   
    18     9    23 1   
    19    10    24 1   
    20    10    25 1   
    21    10    32 1   
    22    11    26 1   
    23    12    13 1   
    24    12    27 1   
    25    13    14 1   
    26    13    15 1   
    27    13    28 1   
    28    14    29 1   
    29    14    30 1   
    30    14    31 1   
    31    15    16 1   
    32    15    17 1   
@<TRIPOS>SUBSTRUCTURE
     1 109         1 TEMP              0 ****  ****    0 ROOT
