@<TRIPOS>MOLECULE
molecule
   32    32     1     0     0
SMALL
bcc


@<TRIPOS>ATOM
      1 C1           0.0000     0.0000     0.0000 ca         1 109      -0.204900
      2 C2           1.3920     0.0000     0.0000 ca         1 109      -0.111000
      3 C3           2.0810     0.0000     1.2020 ca         1 109       0.110100
      4 C4           1.3830    -0.0100     2.4020 ca         1 109      -0.010300
      5 C5           0.0010    -0.0110     2.4030 ca         1 109      -0.072000
      6 C6          -0.6940    -0.0060     1.2100 ca         1 109      -0.150000
      7 C7           2.1350    -0.0160     3.7070 c3         1 109       0.176100
      8 C8          -0.7430     0.0040    -1.2810 ce         1 109       0.556800
      9 O1           3.4400     0.0000     1.2070 oh         1 109      -0.490100
     10 N1          -2.1210     0.0050    -1.2800 nz         1 109      -0.801600
     11 N2          -0.0950     0.0100    -2.4110 n2         1 109      -0.710100
     12 N            1.1800    -0.0210     4.8220 n7         1 109      -0.804200
     13 CA           1.9720    -0.0270     6.0580 c3         1 109       0.040500
     14 CB           2.2470     1.4150     6.4930 c3         1 109      -0.065100
     15 C            1.2090    -0.7400     7.1420 c          1 109       0.889600
     16 O            1.7430    -0.8680     8.3670 o          1 109      -0.834800
     17 OXT          0.1150    -1.1970     6.9100 o          1 109      -0.834800
     18 H2           1.9340     0.0810    -0.9350 ha         1 109       0.162000
     19 H5          -0.5380    -0.0110     3.3420 ha         1 109       0.204000
     20 H6          -1.7760    -0.0440     1.2140 ha         1 109       0.099000
     21 H71          2.7570    -0.9010     3.7610 h1         1 109       0.064700
     22 H72          2.7570     0.8680     3.7690 h1         1 109       0.064700
     23 HO1          3.7560    -0.7270     0.6970 ho         1 109       0.428000
     24 HN11        -2.4540     0.8160    -0.7980 hn         1 109       0.462133
     25 HN12        -2.4550     0.0160    -2.2230 hn         1 109       0.462133
     26 HN2         -0.5960     0.0140    -3.2770 hn         1 109       0.419400
     27 H            0.6220    -0.8510     4.7790 hn         1 109       0.370800
     28 HA           2.9120    -0.5370     5.8830 h1         1 109       0.025700
     29 HB1          1.7910     2.0980     5.7870 hc         1 109       0.030367
     30 HB2          3.3170     1.5850     6.5220 hc         1 109       0.030367
     31 HB3          1.8290     1.5810     7.4780 hc         1 109       0.030367
     32 H13         -2.4540    -0.8180    -0.8170 hn         1 109       0.462133
@<TRIPOS>BOND
     1     1     2 ar  
     2     1     6 ar  
     3     1     8 1   
     4     2     3 ar  
     5     2    18 1   
     6     3     4 ar  
     7     3     9 1   
     8     4     5 ar  
     9     4     7 1   
    10     5     6 ar  
    11     5    19 1   
    12     6    20 1   
    13     7    12 1   
    14     7    21 1   
    15     7    22 1   
    16     8    10 1   
    17     8    11 2   
    18     9    23 1   
    19    10    24 1   
    20    10    25 1   
    21    11    26 1   
    22    12    13 1   
    23    12    27 1   
    24    13    14 1   
    25    13    15 1   
    26    13    28 1   
    27    14    29 1   
    28    14    30 1   
    29    14    31 1   
    30    15    16 1   
    31    15    17 1   
    32    32    10 1   
@<TRIPOS>SUBSTRUCTURE
     1 109         1 TEMP              0 ****  ****    0 ROOT
