@<TRIPOS>MOLECULE
109
   33    33     1     0     0
SMALL
bcc


@<TRIPOS>ATOM
      1 C1           0.0410     0.1110    -0.0550 ca         1 109      -0.181900
      2 C2           1.4280     0.0150     0.0150 ca         1 109      -0.095000
      3 C3           2.0540     0.0470     1.2770 ca         1 109       0.166100
      4 C4           1.2870     0.1840     2.4510 ca         1 109      -0.138300
      5 C5          -0.1070     0.2760     2.3460 ca         1 109      -0.077000
      6 C6          -0.7350     0.2390     1.1050 ca         1 109      -0.137000
      7 C7           1.9310     0.3600     3.7880 c3         1 109       0.140100
      8 C8          -0.6100     0.1510    -1.3890 ce         1 109       0.625800
      9 O1           3.4040    -0.1720     1.2960 oh         1 109      -0.538100
     10 N1          -1.4820    -1.0980    -1.5790 nz         1 109      -0.891600
     11 N2          -0.4560     1.0750    -2.2350 n2         1 109      -0.658100
     12 N            2.9040    -0.7100     4.1430 ny         1 109      -0.742000
     13 CA           3.8790    -0.2320     5.1890 c3         1 109      -0.057500
     14 CB           4.6840    -1.3790     5.7560 c3         1 109      -0.115100
     15 C            4.8630     0.8680     4.5720 c          1 109       0.944600
     16 O            5.7540     1.2610     5.3360 o          1 109      -0.770300
     17 OXT          4.6060     1.2380     3.3900 o          1 109      -0.770300
     18 H2           2.0580    -0.0620    -0.8870 ha         1 109       0.180000
     19 H5          -0.7190     0.3980     3.2570 ha         1 109       0.163000
     20 H6          -1.8280     0.3530     1.0470 ha         1 109       0.143000
     21 H71          1.1590     0.4130     4.6070 hx         1 109       0.135700
     22 H72          2.5100     1.3460     3.7660 hx         1 109       0.135700
     23 HO1          3.8600     0.5940     1.7220 ho         1 109       0.515000
     24 HN11        -0.8690    -1.9150    -1.6630 hn         1 109       0.458800
     25 HN12        -2.0690    -1.2160    -0.7470 hn         1 109       0.458800
     26 HN2         -0.8810     1.1030    -3.1360 hn         1 109       0.470400
     27 H            3.4700    -0.9360     3.3100 hn         1 109       0.440300
     28 HA           3.2850     0.2700     6.0030 hx         1 109       0.091700
     29 HB1          4.0460    -2.1010     6.3190 hc         1 109       0.067700
     30 HB2          5.2460    -1.9250     4.9600 hc         1 109       0.067700
     31 HB3          5.4360    -0.9300     6.4580 hc         1 109       0.067700
     32 H13         -2.0800    -1.0430    -2.4060 hn         1 109       0.458800
     33 H21          2.4190    -1.5490     4.4580 hn         1 109       0.440300
@<TRIPOS>BOND
     1     1     2 ar  
     2     1     6 ar  
     3     1     8 1   
     4     2     3 ar  
     5     2    18 1   
     6     3     4 ar  
     7     3     9 1   
     8     4     5 ar  
     9     4     7 1   
    10     5     6 ar  
    11     5    19 1   
    12     6    20 1   
    13     7    12 1   
    14     7    21 1   
    15     7    22 1   
    16     8    10 1   
    17     8    11 2   
    18     9    23 1   
    19    10    24 1   
    20    10    25 1   
    21    10    32 1   
    22    11    26 1   
    23    12    13 1   
    24    12    27 1   
    25    12    33 1   
    26    13    14 1   
    27    13    15 1   
    28    13    28 1   
    29    14    29 1   
    30    14    30 1   
    31    14    31 1   
    32    15    16 1   
    33    15    17 1   
@<TRIPOS>SUBSTRUCTURE
     1 109         1 TEMP              0 ****  ****    0 ROOT
