@<TRIPOS>MOLECULE
10A
   71    70     1     0     0
SMALL
bcc


@<TRIPOS>ATOM
      1 C1           0.2680    -0.2030    -0.4130 c3         1 10A      -0.095100
      2 C2           1.7100    -0.2010     0.0270 c3         1 10A      -0.080900
      3 C3           1.8280    -0.1390     1.5350 c3         1 10A      -0.082400
      4 C4           3.2760    -0.1090     1.9740 c3         1 10A      -0.079400
      5 C5           3.3880    -0.0240     3.4810 c3         1 10A      -0.082400
      6 C6           4.8330     0.0720     3.9210 c3         1 10A      -0.080900
      7 C7           4.9300     0.2370     5.4230 c3         1 10A      -0.084400
      8 C8           6.3660     0.4460     5.8570 c3         1 10A      -0.080900
      9 C9           6.4360     0.6860     7.3540 c3         1 10A      -0.103400
     10 C10          7.8440     1.1320     7.7230 c3         1 10A       0.113300
     11 N1           8.0790     1.3950     9.1910 n4         1 10A      -0.605800
     12 C11          9.4110     2.0530     9.3450 c3         1 10A       0.089100
     13 C12          8.0970     0.1000     9.9360 c3         1 10A       0.089100
     14 C13          7.0050     2.2700     9.7880 c3         1 10A       0.113300
     15 C14          6.8020     3.6170     9.1050 c3         1 10A      -0.103400
     16 C15          5.5340     4.2770     9.6160 c3         1 10A      -0.080900
     17 C16          4.2580     3.6700     9.0730 c3         1 10A      -0.084400
     18 C17          4.0310     3.9710     7.6070 c3         1 10A      -0.080900
     19 C18          2.7400     3.3490     7.1180 c3         1 10A      -0.082400
     20 C19          2.5270     3.6060     5.6420 c3         1 10A      -0.079400
     21 C20          1.2260     2.9990     5.1630 c3         1 10A      -0.082400
     22 C21          1.0180     3.2370     3.6820 c3         1 10A      -0.080900
     23 C22         -0.2770     2.6330     3.2030 c3         1 10A      -0.095100
     24 H11         -0.2710    -1.0880     0.0040 hc         1 10A       0.036700
     25 H12         -0.2520     0.7210    -0.0610 hc         1 10A       0.036700
     26 H13          0.2030    -0.2420    -1.5270 hc         1 10A       0.036700
     27 H21          2.2410     0.6770    -0.4270 hc         1 10A       0.040200
     28 H22          2.2200    -1.1270    -0.3500 hc         1 10A       0.040200
     29 H31          1.3150    -1.0270     1.9890 hc         1 10A       0.042450
     30 H32          1.3000     0.7780     1.9150 hc         1 10A       0.042450
     31 H41          3.8010    -1.0300     1.6070 hc         1 10A       0.041700
     32 H42          3.7910     0.7730     1.5070 hc         1 10A       0.041700
     33 H51          2.9110    -0.9270     3.9450 hc         1 10A       0.044200
     34 H52          2.8220     0.8760     3.8490 hc         1 10A       0.044200
     35 H61          5.3220     0.9460     3.4130 hc         1 10A       0.042450
     36 H62          5.3880    -0.8490     3.6030 hc         1 10A       0.042450
     37 H71          4.3090     1.1170     5.7430 hc         1 10A       0.047950
     38 H72          4.5090    -0.6700     5.9300 hc         1 10A       0.047950
     39 H81          6.9810    -0.4520     5.5850 hc         1 10A       0.058700
     40 H82          6.7970     1.3260     5.3090 hc         1 10A       0.058700
     41 H91          6.1570    -0.2540     7.8960 hc         1 10A       0.065700
     42 H92          5.6880     1.4790     7.6310 hc         1 10A       0.065700
     43 H101         8.0880     2.0830     7.1680 hx         1 10A       0.097200
     44 H102         8.5840     0.3400     7.4080 hx         1 10A       0.097200
     45 H111         9.4080     3.0360     8.8030 hx         1 10A       0.099367
     46 H112         9.6150     2.2280    10.4350 hx         1 10A       0.099367
     47 H113        10.2070     1.3900     8.9150 hx         1 10A       0.099367
     48 H121         7.1080    -0.4160     9.8150 hx         1 10A       0.099367
     49 H122         8.9130    -0.5540     9.5280 hx         1 10A       0.099367
     50 H123         8.2850     0.2980    11.0240 hx         1 10A       0.099367
     51 H131         6.0450     1.6780     9.7580 hx         1 10A       0.097200
     52 H132         7.2820     2.4400    10.8680 hx         1 10A       0.097200
     53 H141         7.6760     4.2860     9.3260 hc         1 10A       0.065700
     54 H142         6.7320     3.5020     7.9920 hc         1 10A       0.065700
     55 H151         5.5170     4.2290    10.7380 hc         1 10A       0.058700
     56 H152         5.5720     5.3630     9.3310 hc         1 10A       0.058700
     57 H161         4.2570     2.5590     9.2300 hc         1 10A       0.047950
     58 H162         3.3940     4.0810     9.6640 hc         1 10A       0.047950
     59 H171         4.8850     3.5780     6.9940 hc         1 10A       0.042450
     60 H172         3.9970     5.0820     7.4510 hc         1 10A       0.042450
     61 H181         1.8770     3.7660     7.7010 hc         1 10A       0.044200
     62 H182         2.7610     2.2420     7.3050 hc         1 10A       0.044200
     63 H191         2.5220     4.7110     5.4480 hc         1 10A       0.041700
     64 H192         3.3800     3.1700     5.0560 hc         1 10A       0.041700
     65 H201         1.2280     1.8960     5.3680 hc         1 10A       0.042450
     66 H202         0.3690     3.4410     5.7370 hc         1 10A       0.042450
     67 H211         1.0200     4.3400     3.4750 hc         1 10A       0.040200
     68 H212         1.8750     2.7910     3.1080 hc         1 10A       0.040200
     69 H221        -0.3820     2.7680     2.0990 hc         1 10A       0.036700
     70 H222        -1.1490     3.1190     3.7040 hc         1 10A       0.036700
     71 H223        -0.3090     1.5390     3.4270 hc         1 10A       0.036700
@<TRIPOS>BOND
     1     1     2 1   
     2     1    24 1   
     3     1    25 1   
     4     1    26 1   
     5     2     3 1   
     6     2    27 1   
     7     2    28 1   
     8     3     4 1   
     9     3    29 1   
    10     3    30 1   
    11     4     5 1   
    12     4    31 1   
    13     4    32 1   
    14     5     6 1   
    15     5    33 1   
    16     5    34 1   
    17     6     7 1   
    18     6    35 1   
    19     6    36 1   
    20     7     8 1   
    21     7    37 1   
    22     7    38 1   
    23     8     9 1   
    24     8    39 1   
    25     8    40 1   
    26     9    10 1   
    27     9    41 1   
    28     9    42 1   
    29    10    11 1   
    30    10    43 1   
    31    10    44 1   
    32    11    12 1   
    33    11    13 1   
    34    11    14 1   
    35    12    45 1   
    36    12    46 1   
    37    12    47 1   
    38    13    48 1   
    39    13    49 1   
    40    13    50 1   
    41    14    15 1   
    42    14    51 1   
    43    14    52 1   
    44    15    16 1   
    45    15    53 1   
    46    15    54 1   
    47    16    17 1   
    48    16    55 1   
    49    16    56 1   
    50    17    18 1   
    51    17    57 1   
    52    17    58 1   
    53    18    19 1   
    54    18    59 1   
    55    18    60 1   
    56    19    20 1   
    57    19    61 1   
    58    19    62 1   
    59    20    21 1   
    60    20    63 1   
    61    20    64 1   
    62    21    22 1   
    63    21    65 1   
    64    21    66 1   
    65    22    23 1   
    66    22    67 1   
    67    22    68 1   
    68    23    69 1   
    69    23    70 1   
    70    23    71 1   
@<TRIPOS>SUBSTRUCTURE
     1 10A         1 TEMP              0 ****  ****    0 ROOT
