@<TRIPOS>MOLECULE
10A
   71    70     1     0     0
SMALL
bcc


@<TRIPOS>ATOM
      1 C1           0.0000     0.0000     0.0000 c3         1 10A       0.006900
      2 C2           1.5300     0.0000     0.0000 c3         1 10A      -0.027400
      3 C3           2.0410     0.0000     1.4420 c3         1 10A      -0.029400
      4 C4           3.5710     0.0000     1.4410 c3         1 10A      -0.028400
      5 C5           4.0810     0.0000     2.8830 c3         1 10A      -0.027400
      6 C6           5.6120     0.0000     2.8830 c3         1 10A      -0.026400
      7 C7           6.1220     0.0000     4.3250 c3         1 10A      -0.026400
      8 C8           7.6520     0.0000     4.3250 c3         1 10A      -0.018900
      9 C9           8.1630     0.0000     5.7660 c3         1 10A      -0.054400
     10 C10          9.6930     0.0000     5.7660 c3         1 10A      -0.015200
     11 N1          10.1830     0.0000     7.1510 n4         1 10A       0.054200
     12 C11          9.6940     1.2010     7.8430 c3         1 10A      -0.004400
     13 C12          9.6930    -1.1980     7.8440 c3         1 10A      -0.004400
     14 C13         11.6520     0.0000     7.1500 c3         1 10A      -0.015200
     15 C14         12.1630     0.0000     8.5920 c3         1 10A      -0.054400
     16 C15         13.6930     0.0000     8.5920 c3         1 10A      -0.018900
     17 C16         14.2030     0.0000    10.0340 c3         1 10A      -0.026400
     18 C17         15.7330     0.0000    10.0330 c3         1 10A      -0.026400
     19 C18         16.2440     0.0000    11.4760 c3         1 10A      -0.027400
     20 C19         17.7740     0.0000    11.4750 c3         1 10A      -0.028400
     21 C20         18.2850     0.0000    12.9170 c3         1 10A      -0.029400
     22 C21         19.8140     0.0000    12.9160 c3         1 10A      -0.027400
     23 C22         20.3260     0.0000    14.3590 c3         1 10A       0.006900
     24 H11         -0.3610     0.8840     0.5110 hc         1 10A       0.002700
     25 H12         -0.3610     0.0000    -1.0210 hc         1 10A       0.002700
     26 H13         -0.3610    -0.8850     0.5110 hc         1 10A       0.002700
     27 H21          1.8910    -0.8840    -0.5110 hc         1 10A       0.012700
     28 H22          1.8910     0.8840    -0.5110 hc         1 10A       0.012700
     29 H31          1.6800    -0.8840     1.9530 hc         1 10A       0.015700
     30 H32          1.6800     0.8840     1.9530 hc         1 10A       0.015700
     31 H41          3.9320    -0.8840     0.9300 hc         1 10A       0.016700
     32 H42          3.9320     0.8840     0.9300 hc         1 10A       0.016700
     33 H51          3.7200     0.8840     3.3940 hc         1 10A       0.016700
     34 H52          3.7200    -0.8840     3.3940 hc         1 10A       0.016700
     35 H61          5.9730     0.8840     2.3720 hc         1 10A       0.018700
     36 H62          5.9730    -0.8840     2.3720 hc         1 10A       0.018700
     37 H71          5.7610    -0.8840     4.8360 hc         1 10A       0.018700
     38 H72          5.7610     0.8840     4.8360 hc         1 10A       0.018700
     39 H81          8.0130    -0.8840     3.8140 hc         1 10A       0.026700
     40 H82          8.0130     0.8840     3.8140 hc         1 10A       0.026700
     41 H91          7.8020    -0.8840     6.2770 hc         1 10A       0.036700
     42 H92          7.8020     0.8840     6.2770 hc         1 10A       0.036700
     43 H101        10.0540     0.8840     5.2550 hx         1 10A       0.078200
     44 H102        10.0540    -0.8850     5.2560 hx         1 10A       0.078200
     45 H111        10.0560     1.2010     8.8640 hx         1 10A       0.077533
     46 H112        10.0550     2.0850     7.3310 hx         1 10A       0.077533
     47 H113         8.6110     1.2010     7.8430 hx         1 10A       0.077533
     48 H121        10.0540    -2.0830     7.3340 hx         1 10A       0.077533
     49 H122         8.6100    -1.1980     7.8450 hx         1 10A       0.077533
     50 H123        10.0550    -1.1980     8.8650 hx         1 10A       0.077533
     51 H131        12.0120    -0.8850     6.6390 hx         1 10A       0.078200
     52 H132        12.0130     0.8840     6.6390 hx         1 10A       0.078200
     53 H141        11.8020     0.8840     9.1030 hc         1 10A       0.036700
     54 H142        11.8020    -0.8840     9.1030 hc         1 10A       0.036700
     55 H151        14.0540     0.8840     8.0810 hc         1 10A       0.026700
     56 H152        14.0540    -0.8840     8.0810 hc         1 10A       0.026700
     57 H161        13.8420    -0.8840    10.5450 hc         1 10A       0.018700
     58 H162        13.8420     0.8840    10.5450 hc         1 10A       0.018700
     59 H171        16.0940     0.8840     9.5220 hc         1 10A       0.018700
     60 H172        16.0940    -0.8840     9.5220 hc         1 10A       0.018700
     61 H181        15.8840     0.8840    11.9870 hc         1 10A       0.016700
     62 H182        15.8840    -0.8840    11.9870 hc         1 10A       0.016700
     63 H191        18.1350    -0.8840    10.9640 hc         1 10A       0.016700
     64 H192        18.1350     0.8840    10.9640 hc         1 10A       0.016700
     65 H201        17.9240    -0.8840    13.4280 hc         1 10A       0.015700
     66 H202        17.9240     0.8840    13.4280 hc         1 10A       0.015700
     67 H211        20.1750    -0.8840    12.4050 hc         1 10A       0.012700
     68 H212        20.1750     0.8840    12.4050 hc         1 10A       0.012700
     69 H221        19.9650     0.8850    14.8700 hc         1 10A       0.002700
     70 H222        21.4090    -0.0000    14.3580 hc         1 10A       0.002700
     71 H223        19.9650    -0.8850    14.8700 hc         1 10A       0.002700
@<TRIPOS>BOND
     1     1     2 1   
     2     1    24 1   
     3     1    25 1   
     4     1    26 1   
     5     2     3 1   
     6     2    27 1   
     7     2    28 1   
     8     3     4 1   
     9     3    29 1   
    10     3    30 1   
    11     4     5 1   
    12     4    31 1   
    13     4    32 1   
    14     5     6 1   
    15     5    33 1   
    16     5    34 1   
    17     6     7 1   
    18     6    35 1   
    19     6    36 1   
    20     7     8 1   
    21     7    37 1   
    22     7    38 1   
    23     8     9 1   
    24     8    39 1   
    25     8    40 1   
    26     9    10 1   
    27     9    41 1   
    28     9    42 1   
    29    10    11 1   
    30    10    43 1   
    31    10    44 1   
    32    11    12 1   
    33    11    13 1   
    34    11    14 1   
    35    12    45 1   
    36    12    46 1   
    37    12    47 1   
    38    13    48 1   
    39    13    49 1   
    40    13    50 1   
    41    14    15 1   
    42    14    51 1   
    43    14    52 1   
    44    15    16 1   
    45    15    53 1   
    46    15    54 1   
    47    16    17 1   
    48    16    55 1   
    49    16    56 1   
    50    17    18 1   
    51    17    57 1   
    52    17    58 1   
    53    18    19 1   
    54    18    59 1   
    55    18    60 1   
    56    19    20 1   
    57    19    61 1   
    58    19    62 1   
    59    20    21 1   
    60    20    63 1   
    61    20    64 1   
    62    21    22 1   
    63    21    65 1   
    64    21    66 1   
    65    22    23 1   
    66    22    67 1   
    67    22    68 1   
    68    23    69 1   
    69    23    70 1   
    70    23    71 1   
@<TRIPOS>SUBSTRUCTURE
     1 10A         1 TEMP              0 ****  ****    0 ROOT
