@<TRIPOS>MOLECULE
molecule
   45    46     1     0     0
SMALL
bcc


@<TRIPOS>ATOM
      1 O14          0.0000     0.0000     0.0000 o          1 10B      -0.604800
      2 S13          1.4200     0.0000     0.0000 sy         1 10B       1.432200
      3 O13          2.1980     0.0000     1.1890 o          1 10B      -0.604800
      4 N12          1.8880    -1.3330    -0.8650 n3         1 10B      -0.587000
      5 O15          1.0540    -1.8400    -1.8910 os         1 10B      -0.098100
      6 C67          1.3110    -1.2760    -3.1780 c3         1 10B       0.086100
      7 C69          2.4510    -2.0430    -3.8530 c3         1 10B      -0.102600
      8 C68          0.0500    -1.3760    -4.0390 c3         1 10B      -0.102600
      9 C31          3.1640    -1.9880    -0.5670 c3         1 10B       0.166800
     10 C11          2.9510    -3.0530     0.4790 c          1 10B       0.652100
     11 O2           1.8420    -3.2450     0.9310 o          1 10B      -0.541100
     12 N2           3.9920    -3.7900     0.9120 ns         1 10B      -0.475400
     13 O7           3.7910    -4.7910     1.8940 oh         1 10B      -0.356100
     14 C28          1.9180     1.4190    -0.9200 ca         1 10B      -0.332500
     15 C14          3.1700     1.9700    -0.7140 ca         1 10B      -0.028000
     16 C17          3.5650     3.0800    -1.4310 ca         1 10B      -0.147000
     17 C16          2.7010     3.6460    -2.3660 cp         1 10B       0.027000
     18 C15          1.4410     3.0870    -2.5710 ca         1 10B      -0.147000
     19 C29          1.0580     1.9730    -1.8510 ca         1 10B      -0.028000
     20 C21          3.1200     4.8400    -3.1410 cp         1 10B      -0.056000
     21 C26          4.3810     5.3970    -2.9400 ca         1 10B      -0.110000
     22 C25          4.7660     6.5070    -3.6630 ca         1 10B      -0.128000
     23 C24          3.9020     7.0690    -4.5850 ca         1 10B      -0.116000
     24 C23          2.6480     6.5210    -4.7890 ca         1 10B      -0.128000
     25 C30          2.2550     5.4060    -4.0750 ca         1 10B      -0.110000
     26 H1           1.5910    -0.2350    -3.0680 h1         1 10B       0.046700
     27 H2           2.3980    -3.0890    -3.5740 hc         1 10B       0.046867
     28 H3           3.4010    -1.6320    -3.5340 hc         1 10B       0.046867
     29 H4           2.3610    -1.9510    -4.9290 hc         1 10B       0.046867
     30 H5           0.1990    -0.8290    -4.9620 hc         1 10B       0.046867
     31 H6          -0.7900    -0.9540    -3.5010 hc         1 10B       0.046867
     32 H7          -0.1520    -2.4160    -4.2650 hc         1 10B       0.046867
     33 H8           3.5560    -2.4420    -1.4690 h1         1 10B       0.075200
     34 H9           3.8690    -1.2540    -0.1960 h1         1 10B       0.075200
     35 H10          4.9070    -3.6300     0.5400 hn         1 10B       0.313500
     36 H11          4.6040    -5.2410     2.0550 ho         1 10B       0.397000
     37 H12          3.8410     1.5290     0.0140 ha         1 10B       0.150500
     38 H13          4.5460     3.5110    -1.2680 ha         1 10B       0.140500
     39 H14          0.7660     3.5210    -3.2980 ha         1 10B       0.140500
     40 H15          0.0790     1.5370    -2.0100 ha         1 10B       0.150500
     41 H16          5.0590     4.9580    -2.2180 ha         1 10B       0.134500
     42 H17          5.7460     6.9410    -3.5080 ha         1 10B       0.134000
     43 H18          4.2070     7.9420    -5.1490 ha         1 10B       0.133000
     44 H19          1.9750     6.9630    -5.5140 ha         1 10B       0.134000
     45 H20          1.2730     4.9780    -4.2350 ha         1 10B       0.134500
@<TRIPOS>BOND
     1     8     6 1
     2     6     7 1
     3     6     5 1
     4     5     4 1
     5     9     4 1
     6     9    10 1
     7     4     2 1
     8    11    10 2
     9     1     2 2
    10    10    12 1
    11     2     3 2
    12     2    14 1
    13    12    13 1
    14    14    19 ar
    15    14    15 ar
    16    19    18 ar
    17    15    16 ar
    18    18    17 ar
    19    16    17 ar
    20    17    20 1
    21    21    20 ar
    22    21    22 ar
    23    20    25 ar
    24    22    23 ar
    25    25    24 ar
    26    23    24 ar
    27     6    26 1
    28     7    27 1
    29     7    28 1
    30     7    29 1
    31     8    30 1
    32     8    31 1
    33     8    32 1
    34     9    33 1
    35     9    34 1
    36    12    35 1
    37    13    36 1
    38    15    37 1
    39    16    38 1
    40    18    39 1
    41    19    40 1
    42    21    41 1
    43    22    42 1
    44    23    43 1
    45    24    44 1
    46    25    45 1
@<TRIPOS>SUBSTRUCTURE
     1 10B         1 TEMP              0 ****  ****    0 ROOT
