@<TRIPOS>MOLECULE
molecule
   47    48     1     0     0
SMALL
bcc


@<TRIPOS>ATOM
      1 O14          0.0000     0.0000     0.0000 o          1 10B      -0.586300
      2 S13          1.4430     0.0000     0.0000 sy         1 10B       1.605200
      3 O13          1.7440     0.0000     1.4060 o          1 10B      -0.586300
      4 N12          2.1520     1.2570    -0.8330 nx         1 10B      -0.228800
      5 O15          1.2290     2.1200    -1.2100 os         1 10B      -0.377100
      6 C67          1.2510     2.6150    -2.5090 c3         1 10B       0.132100
      7 C69          0.3340     1.7870    -3.3740 c3         1 10B      -0.130600
      8 C68          0.7360     4.0110    -2.4540 c3         1 10B      -0.130600
      9 C31          3.3460     1.8640    -0.2390 c3         1 10B       0.039800
     10 C11          4.5480     1.3210    -0.9640 c          1 10B       0.535100
     11 O2           4.8380     1.7420    -2.0630 o          1 10B      -0.378100
     12 N2           5.3700     0.3050    -0.3880 ny         1 10B      -0.442300
     13 O7           6.4080    -0.1290    -1.0660 oh         1 10B      -0.351300
     14 C28          2.0600    -1.4870    -0.7820 ca         1 10B      -0.687500
     15 C14          3.1670    -2.1460    -0.2380 ca         1 10B       0.041000
     16 C17          3.6350    -3.3090    -0.8530 ca         1 10B      -0.172000
     17 C16          3.0120    -3.7910    -2.0060 cp         1 10B       0.216000
     18 C15          1.9140    -3.1330    -2.5420 ca         1 10B      -0.172000
     19 C29          1.4300    -1.9740    -1.9250 ca         1 10B       0.041000
     20 C21          3.4840    -5.0590    -2.6460 cp         1 10B      -0.152000
     21 C26          3.4680    -5.2400    -4.0220 ca         1 10B      -0.055000
     22 C25          3.8850    -6.4450    -4.5750 ca         1 10B      -0.136500
     23 C24          4.2910    -7.4870    -3.7480 ca         1 10B      -0.027000
     24 C23          4.2930    -7.3120    -2.3720 ca         1 10B      -0.136500
     25 C30          3.8850    -6.1040    -1.8150 ca         1 10B      -0.055000
     26 H1           2.2600     2.5990    -2.9030 h1         1 10B       0.074700
     27 H2          -0.5130     1.4540    -2.7870 hc         1 10B       0.073033
     28 H3          -0.0160     2.3870    -4.2050 hc         1 10B       0.073033
     29 H4           0.8730     0.9270    -3.7510 hc         1 10B       0.073033
     30 H5          -0.2960     4.0020    -2.1230 hc         1 10B       0.073033
     31 H6           1.3330     4.5890    -1.7600 hc         1 10B       0.073033
     32 H7           0.7940     4.4560    -3.4400 hc         1 10B       0.073033
     33 H8           3.4050     1.6080     0.8120 hx         1 10B       0.144200
     34 H9           3.3060     2.9410    -0.3520 hx         1 10B       0.144200
     35 H10          4.7820    -0.4850    -0.2090 hn         1 10B       0.498800
     36 H11          7.1870    -0.0290    -0.5450 ho         1 10B       0.490000
     37 H12          3.6470    -1.7670     0.6560 ha         1 10B       0.163500
     38 H13          4.4920    -3.8300    -0.4420 ha         1 10B       0.186000
     39 H14          1.3730    -3.5710    -3.3730 ha         1 10B       0.186000
     40 H15          0.5730    -1.4550    -2.3370 ha         1 10B       0.163500
     41 H16          3.1510    -4.4310    -4.6690 ha         1 10B       0.143500
     42 H17          3.8760    -6.5790    -5.6500 ha         1 10B       0.170000
     43 H18          4.6130    -8.4280    -4.1760 ha         1 10B       0.173000
     44 H19          4.6070    -8.1230    -1.7260 ha         1 10B       0.170000
     45 H20          3.8880    -5.9730    -0.7400 ha         1 10B       0.143500
     46 H23          5.7300     0.6670     0.4720 hn         1 10B       0.498800
     47 H121         2.5020     0.8390    -1.6720 hn         1 10B       0.407800
@<TRIPOS>BOND
     1     8     6 1   
     2     6     7 1   
     3     6     5 1   
     4     5     4 1   
     5     9     4 1   
     6     9    10 1   
     7     4     2 1   
     8    11    10 2   
     9     1     2 2   
    10    10    12 1   
    11     2     3 2   
    12     2    14 1   
    13    12    13 1   
    14    14    19 ar  
    15    14    15 ar  
    16    19    18 ar  
    17    15    16 ar  
    18    18    17 ar  
    19    16    17 ar  
    20    17    20 1   
    21    21    20 ar  
    22    21    22 ar  
    23    20    25 ar  
    24    22    23 ar  
    25    25    24 ar  
    26    23    24 ar  
    27     6    26 1   
    28     7    27 1   
    29     7    28 1   
    30     7    29 1   
    31     8    30 1   
    32     8    31 1   
    33     8    32 1   
    34     9    33 1   
    35     9    34 1   
    36    12    35 1   
    37    13    36 1   
    38    15    37 1   
    39    16    38 1   
    40    18    39 1   
    41    19    40 1   
    42    21    41 1   
    43    22    42 1   
    44    23    43 1   
    45    24    44 1   
    46    25    45 1   
    47    46    12 1   
    48    47     4 1   
@<TRIPOS>SUBSTRUCTURE
     1 10B         1 TEMP              0 ****  ****    0 ROOT
