@<TRIPOS>MOLECULE
10D
   23    22     1     0     0
SMALL
bcc


@<TRIPOS>ATOM
      1 O14        -0.0800    0.0050   -0.7600 o         1 10D     -0.958167
      2 P10         1.2960   -0.1160   -0.1650 p5        1 10D      1.459900
      3 O11         1.3240   -0.5810    1.2650 o         1 10D     -0.958167
      4 O15         2.3030   -0.7790   -1.0630 o         1 10D     -0.958167
      5 O9          1.8700    1.5780   -0.0380 os        1 10D     -0.799800
      6 P8          2.3780    3.0310    0.1280 p5        1 10D      1.574800
      7 O12         1.4450    4.0050    0.7690 o         1 10D     -0.932500
      8 O13         3.8180    3.2050    0.4850 o         1 10D     -0.932500
      9 O7          2.3810    3.6210   -1.4940 os        1 10D     -0.559200
     10 C6          2.8400    4.9220   -1.5050 c3        1 10D      0.192600
     11 C5          2.9160    5.4320   -2.9040 c2        1 10D     -0.032200
     12 C3          3.3790    6.6390   -3.2810 c2        1 10D     -0.317400
     13 C4          3.8700    7.6640   -2.3370 c3        1 10D     -0.018900
     14 C1          3.4830    6.9850   -4.7340 c3        1 10D      0.219100
     15 F2          3.0470    8.2660   -5.0490 f         1 10D     -0.288300
     16 H4          2.1430    5.5730   -0.8960 h1        1 10D      0.045200
     17 H5          3.8630    4.9660   -1.0230 h1        1 10D      0.045200
     18 H6          2.5590    4.7070   -3.6590 ha        1 10D      0.126000
     19 H9          4.9730    7.8110   -2.4560 hc        1 10D      0.020367
     20 H10         3.3700    8.6470   -2.5330 hc        1 10D      0.020367
     21 H11         3.6650    7.3610   -1.2800 hc        1 10D      0.020367
     22 H12         4.5630    6.9160   -5.0560 h1        1 10D      0.016200
     23 H13         2.8850    6.2590   -5.3550 h1        1 10D      0.016200
@<TRIPOS>BOND
     1    1    2 1   
     2    2    3 1   
     3    2    4 1   
     4    2    5 1   
     5    5    6 1   
     6    6    7 1   
     7    6    8 1   
     8    6    9 1   
     9    9   10 1   
    10   10   11 1   
    11   10   16 1   
    12   10   17 1   
    13   11   12 2   
    14   11   18 1   
    15   12   13 1   
    16   12   14 1   
    17   13   19 1   
    18   13   20 1   
    19   13   21 1   
    20   14   15 1   
    21   14   22 1   
    22   14   23 1   
@<TRIPOS>SUBSTRUCTURE
     1 10D         1 TEMP              0 ****  ****    0 ROOT
