@<TRIPOS>MOLECULE
molecule
   23    22     1     0     0
SMALL
bcc


@<TRIPOS>ATOM
      1 O14          0.0000     0.0000     0.0000 o          1 10D      -0.943167
      2 P10          1.6100     0.0000     0.0000 p5         1 10D       1.299900
      3 O11          2.1040     0.0000     1.3950 o          1 10D      -0.943167
      4 O15          2.1470    -1.3130    -0.7610 o          1 10D      -0.943167
      5 O9           2.1460     1.3160    -0.7580 os         1 10D      -0.700800
      6 P8           2.3280     2.8570    -0.3310 p5         1 10D       1.405800
      7 O12          1.1730     3.2800     0.4930 o          1 10D      -0.851500
      8 O13          3.6840     3.0200     0.5220 o          1 10D      -0.851500
      9 O7           2.4100     3.7740    -1.6500 os         1 10D      -0.540200
     10 C6           2.4690     5.2020    -1.6050 c3         1 10D       0.231600
     11 C5           2.5380     5.7470    -3.0080 c2         1 10D      -0.444200
     12 C3           3.3850     6.7030    -3.2980 c2         1 10D      -0.115400
     13 C4           4.2000     7.3450    -2.2040 c3         1 10D      -0.101900
     14 C1           3.5470     7.1600    -4.7240 c3         1 10D       0.211100
     15 F2           2.7290     8.2720    -4.9530 f          1 10D      -0.282300
     16 H4           3.3490     5.5100    -1.0540 h1         1 10D       0.013700
     17 H5           1.5830     5.5840    -1.1120 h1         1 10D       0.013700
     18 H6           1.9630     6.2380    -2.2320 ha         1 10D       0.356000
     19 H9           3.5480     7.6340    -1.3890 hc         1 10D       0.035700
     20 H10          4.7000     8.2230    -2.5950 hc         1 10D       0.035700
     21 H11          4.9390     6.6400    -1.8430 hc         1 10D       0.035700
     22 H12          3.2620     6.3590    -5.3950 h1         1 10D       0.039200
     23 H13          4.5810     7.4300    -4.9030 h1         1 10D       0.039200
@<TRIPOS>BOND
     1     3     2 1
     2     7     6 1
     3     2     5 1
     4     2     4 1
     5     2     1 1
     6     8     6 1
     7     5     6 1
     8     6     9 1
     9     9    10 1
    10    11    10 1
    11    11    12 2
    12    15    14 1
    13    14    12 1
    14    12    13 1
    15    10    16 1
    16    10    17 1
    17    11    18 1
    18    13    19 1
    19    13    20 1
    20    13    21 1
    21    14    22 1
    22    14    23 1
@<TRIPOS>SUBSTRUCTURE
     1 10D         1 TEMP              0 ****  ****    0 ROOT
