@<TRIPOS>MOLECULE
10D
   23    22     1     0     0
SMALL
bcc


@<TRIPOS>ATOM
      1 O14          0.1600     0.7130    -0.2600 o          1 10D      -0.960167
      2 P10          1.5650     0.1640    -0.2220 p5         1 10D       1.473900
      3 O11          2.2230     0.1530     1.1290 o          1 10D      -0.960167
      4 O15          2.4150     0.7190    -1.3410 o          1 10D      -0.960167
      5 O9           1.3400    -1.5330    -0.6230 os         1 10D      -0.816800
      6 P8           1.0520    -3.0280    -0.9970 p5         1 10D       1.581800
      7 O12          2.2690    -3.8250    -1.3400 o          1 10D      -0.925000
      8 O13          0.0290    -3.7120    -0.1590 o          1 10D      -0.925000
      9 O7           0.2440    -2.8730    -2.4870 os         1 10D      -0.580200
     10 C6           1.0040    -2.8920    -3.6360 c3         1 10D       0.254600
     11 C5           1.3900    -1.5560    -4.1900 c2         1 10D      -0.229200
     12 C3           0.7930    -0.3750    -3.9810 c2         1 10D      -0.089400
     13 C4          -0.4670    -0.1740    -3.2350 c3         1 10D      -0.100900
     14 C1           1.5130     0.9110    -4.2840 c3         1 10D       0.127100
     15 F2           2.2750     0.8930    -5.4480 f          1 10D      -0.317300
     16 H4           0.4100    -3.4390    -4.4360 h1         1 10D      -0.010800
     17 H5           1.9570    -3.4740    -3.4500 h1         1 10D      -0.010800
     18 H6           2.3440    -1.5740    -4.7450 ha         1 10D       0.074000
     19 H9          -1.0650    -1.1150    -3.1840 hc         1 10D       0.063700
     20 H10         -1.0860     0.6300    -3.7060 hc         1 10D       0.063700
     21 H11         -0.2050     0.1300    -2.1620 hc         1 10D       0.063700
     22 H12          2.1800     1.0990    -3.3700 h1         1 10D       0.091200
     23 H13          0.7770     1.7580    -4.3910 h1         1 10D       0.091200
@<TRIPOS>BOND
     1     1     2 1   
     2     2     3 1   
     3     2     4 1   
     4     2     5 1   
     5     5     6 1   
     6     6     7 1   
     7     6     8 1   
     8     6     9 1   
     9     9    10 1   
    10    10    11 1   
    11    10    16 1   
    12    10    17 1   
    13    11    12 2   
    14    11    18 1   
    15    12    13 1   
    16    12    14 1   
    17    13    19 1   
    18    13    20 1   
    19    13    21 1   
    20    14    15 1   
    21    14    22 1   
    22    14    23 1   
@<TRIPOS>SUBSTRUCTURE
     1 10D         1 TEMP              0 ****  ****    0 ROOT
