@<TRIPOS>MOLECULE
molecule
   26    25     1     0     0
SMALL
bcc


@<TRIPOS>ATOM
      1 O13          0.0000     0.0000     0.0000 o          1 10E      -0.768167
      2 P12          1.4800     0.0000     0.0000 p5         1 10E       1.301900
      3 O14          2.0160     0.0000     1.5170 o          1 10E      -0.768167
      4 O15          2.0170    -1.3150    -0.7600 o          1 10E      -0.768167
      5 O11          2.0160     1.3140    -0.7600 os         1 10E      -0.710800
      6 P8           1.6160     2.8740    -0.7150 p5         1 10E       1.411800
      7 O9           2.2940     3.5640     0.5720 o          1 10E      -0.836000
      8 O10          0.1440     3.0040    -0.6260 o          1 10E      -0.836000
      9 O7           2.1390     3.6010    -2.0530 os         1 10E      -0.604200
     10 C6           1.8500     4.9660    -2.3600 c3         1 10E       0.234600
     11 C5           2.4860     5.3290    -3.6770 c2         1 10E      -0.501200
     12 C3           1.8040     6.0040    -4.5700 c2         1 10E      -0.205400
     13 C4           0.3840     6.4170    -4.2780 c3         1 10E      -0.094900
     14 C1           2.4390     6.3670    -5.8860 c3         1 10E       0.145000
     15 N2           2.0880     5.3590    -6.8940 nz         1 10E      -0.815600
     16 H4           0.7770     5.1020    -2.4270 h1         1 10E       0.054700
     17 H5           2.2470     5.6040    -1.5790 h1         1 10E       0.054700
     18 H6           1.7830     4.5160    -3.5410 ha         1 10E       0.359000
     19 H7           0.3460     6.9340    -3.3270 hc         1 10E       0.033033
     20 H8          -0.2460     5.5360    -4.2350 hc         1 10E       0.033033
     21 H9           0.0310     7.0750    -5.0620 hc         1 10E       0.033033
     22 H10          3.5160     6.4020    -5.7700 hx         1 10E       0.066200
     23 H11          2.0790     7.3380    -6.2060 hx         1 10E       0.066200
     24 H12          2.4110     4.4610    -6.5940 hn         1 10E       0.371467
     25 H13          2.5190     5.5950    -7.7660 hn         1 10E       0.371467
     26 H23          1.0940     5.3340    -7.0100 hn         1 10E       0.371467
@<TRIPOS>BOND
     1     1     2 1
     2     7     6 1
     3     8     6 1
     4     2     5 1
     5     2     3 1
     6     2     4 1
     7     5     6 1
     8     6     9 1
     9     9    10 1
    10    13    12 1
    11    12    14 1
    12    12    11 2
    13    14    15 1
    14    10    11 1
    15    10    16 1
    16    10    17 1
    17    11    18 1
    18    13    19 1
    19    13    20 1
    20    13    21 1
    21    14    22 1
    22    14    23 1
    23    15    24 1
    24    15    25 1
    25    26    15 1
@<TRIPOS>SUBSTRUCTURE
     1 10E         1 TEMP              0 ****  ****    0 ROOT
