@<TRIPOS>MOLECULE
10E
   26    25     1     0     0
SMALL
bcc


@<TRIPOS>ATOM
      1 O13          1.0440     1.3730    -0.0340 o          1 10E      -0.890000
      2 P12          2.2560     0.5650     0.1810 p5         1 10E       2.074000
      3 O14          2.0720    -0.3580     1.5320 oh         1 10E      -0.861000
      4 O15          3.5850     1.1760     0.4700 o          1 10E      -0.890000
      5 O11          2.3790    -0.6610    -0.8630 os         1 10E      -1.300000
      6 P8           2.5030    -1.8880    -1.9570 p5         1 10E       2.059000
      7 O9           2.2360    -1.3870    -3.3180 o          1 10E      -0.878500
      8 O10          1.8170    -3.0590    -1.3690 o          1 10E      -0.878500
      9 O7           4.1250    -2.1940    -1.9120 os         1 10E      -0.760000
     10 C6           4.6410    -2.9390    -0.8470 c3         1 10E       0.100000
     11 C5           5.2200    -2.0650     0.2090 c2         1 10E      -0.372000
     12 C3           5.4550    -2.4400     1.4930 c2         1 10E       0.042000
     13 C4           5.5000    -3.8770     1.8760 c3         1 10E      -0.156000
     14 C1           5.5930    -1.4940     2.5430 c2         1 10E      -0.683000
     15 N2           4.9550    -0.2280     2.4190 nz         1 10E       0.090000
     16 H4           5.4420    -3.6120    -1.2760 h1         1 10E       0.041500
     17 H5           3.8250    -3.5920    -0.4200 h1         1 10E       0.041500
     18 H6           5.3470    -1.0180    -0.1050 ha         1 10E       0.130000
     19 H7           6.0590    -4.4710     1.1120 hc         1 10E       0.049333
     20 H8           5.9950    -4.0200     2.8680 hc         1 10E       0.049333
     21 H9           4.4600    -4.2840     1.9370 hc         1 10E       0.049333
     22 H10          1.8380    -1.2620     1.3630 ho         1 10E       0.235000
     23 H11          6.0260    -1.7230     3.5140 hx         1 10E       0.102000
     24 H12          4.3490    -0.1810     1.5560 hn         1 10E       0.201333
     25 H13          4.3530    -0.0390     3.2180 hn         1 10E       0.201333
     26 H23          5.6270     0.5340     2.3460 hn         1 10E       0.201333
@<TRIPOS>BOND
     1     1     2 1   
     2     2     3 1   
     3     2     4 1   
     4     2     5 1   
     5     3    22 1   
     6     5     6 1   
     7     6     7 1   
     8     6     8 1   
     9     6     9 1   
    10     9    10 1   
    11    10    11 1   
    12    10    16 1   
    13    10    17 1   
    14    11    12 1   
    15    11    18 1   
    16    12    13 1   
    17    12    14 1   
    18    13    19 1   
    19    13    20 1   
    20    13    21 1   
    21    14    15 1   
    22    14    23 1   
    23    15    24 1   
    24    15    25 1   
    25    15    26 1   
@<TRIPOS>SUBSTRUCTURE
     1 10E         1 TEMP              0 ****  ****    0 ROOT
