@<TRIPOS>MOLECULE
10E
   25    24     1     0     0
SMALL
bcc


@<TRIPOS>ATOM
      1 O13         0.3340   -0.4700    0.0980 o         1 10E     -0.957167
      2 P12         1.8060   -0.1740    0.1720 p5        1 10E      1.458900
      3 O14         2.3790   -0.1700    1.5620 o         1 10E     -0.957167
      4 O15         2.6380   -0.8990   -0.8500 o         1 10E     -0.957167
      5 O11         1.9290    1.5520   -0.3060 os        1 10E     -0.798800
      6 P8          2.0540    3.0550   -0.6490 p5        1 10E      1.573800
      7 O9          1.1310    3.9840    0.0730 o         1 10E     -0.929500
      8 O10         3.4260    3.5840   -0.9010 o         1 10E     -0.929500
      9 O7          1.4050    3.1390   -2.2510 os        1 10E     -0.556200
     10 C6          0.9980    4.3860   -2.6460 c3        1 10E      0.229600
     11 C5          1.9140    4.9690   -3.6830 c2        1 10E     -0.050200
     12 C3          1.6260    5.9760   -4.5280 c2        1 10E     -0.333400
     13 C4          0.3300    6.6860   -4.5690 c3        1 10E     -0.010900
     14 C1          2.6430    6.4680   -5.5170 c3        1 10E      0.203000
     15 N2          2.5760    5.8680   -6.8370 n3        1 10E     -0.917800
     16 H4          0.9590    5.0990   -1.7650 h1        1 10E      0.021700
     17 H5         -0.0400    4.3150   -3.0940 h1        1 10E      0.021700
     18 H6          2.9140    4.4940   -3.6990 ha        1 10E      0.149000
     19 H7         -0.4140    6.2150   -3.8810 hc        1 10E      0.008367
     20 H8          0.4590    7.7560   -4.2630 hc        1 10E      0.008367
     21 H9         -0.0930    6.6800   -5.6070 hc        1 10E      0.008367
     22 H10         2.5180    7.5810   -5.6570 h1        1 10E      0.027700
     23 H11         3.6800    6.2920   -5.1120 h1        1 10E      0.027700
     24 H12         2.8500    4.9040   -6.7740 hn        1 10E      0.329300
     25 H13         1.6240    5.8790   -7.1570 hn        1 10E      0.329300
@<TRIPOS>BOND
     1    1    2 1   
     2    2    3 1   
     3    2    4 1   
     4    2    5 1   
     5    5    6 1   
     6    6    7 1   
     7    6    8 1   
     8    6    9 1   
     9    9   10 1   
    10   10   11 1   
    11   10   16 1   
    12   10   17 1   
    13   11   12 2   
    14   11   18 1   
    15   12   13 1   
    16   12   14 1   
    17   13   19 1   
    18   13   20 1   
    19   13   21 1   
    20   14   15 1   
    21   14   22 1   
    22   14   23 1   
    23   15   24 1   
    24   15   25 1   
@<TRIPOS>SUBSTRUCTURE
     1 10E         1 TEMP              0 ****  ****    0 ROOT
