@<TRIPOS>MOLECULE
molecule
   63    65     1     0     0
SMALL
bcc


@<TRIPOS>ATOM
      1 N1           0.0000     0.0000     0.0000 n7         1 10F      -0.792200
      2 C2           1.5040     0.0000     0.0000 c3         1 10F       0.709900
      3 NA2          2.0020     0.0000     1.3360 nz         1 10F      -1.198600
      4 N3           2.2370    -1.0360    -0.8290 n7         1 10F      -0.857200
      5 C4           1.5440    -1.3050    -2.1140 c3         1 10F       0.380300
      6 O4           2.0660    -2.3250    -2.8670 oh         1 10F      -0.640800
      7 C4A          0.0540    -1.4430    -1.9020 c3         1 10F       0.109500
      8 N5          -0.5190    -1.9210    -3.2050 n7         1 10F      -0.819200
      9 C6          -2.0090    -1.8880    -3.0280 c3         1 10F       0.134500
     10 C7          -2.6340    -0.5270    -2.6600 c3         1 10F       0.156800
     11 N8          -2.0460    -0.1150    -1.3440 n7         1 10F      -0.804200
     12 C8A         -0.5230    -0.1590    -1.3910 c3         1 10F       0.409700
     13 C9          -2.8150    -3.0620    -3.6760 c3         1 10F       0.040000
     14 N10         -2.6490    -4.1740    -3.2770 n          1 10F      -0.394000
     15 C11         -1.3850    -7.2150    -6.3000 ca         1 10F      -0.223600
     16 C12         -0.7660    -7.2660    -4.8320 ca         1 10F      -0.031000
     17 C13         -1.2190    -6.2410    -3.7680 ca         1 10F      -0.190500
     18 C14         -2.2690    -5.1680    -4.2060 ca         1 10F       0.136600
     19 C15         -2.8830    -5.0780    -5.6680 ca         1 10F      -0.190500
     20 C16         -2.4140    -6.1160    -6.7140 ca         1 10F      -0.031000
     21 N           -0.2020    -9.2670    -6.7340 ny         1 10F      -0.652800
     22 CA          -0.6240   -10.6600    -6.6870 c3         1 10F      -0.063500
     23 CB           0.6470   -11.4950    -6.4730 c3         1 10F      -0.088400
     24 CG           1.2850   -10.9270    -5.1720 c3         1 10F      -0.146400
     25 CD           1.2640   -11.9160    -3.9600 c          1 10F       0.908600
     26 OE1          2.2820   -11.6520    -3.0050 o          1 10F      -0.637300
     27 OE2          1.2100   -13.2860    -4.3030 o          1 10F      -0.637300
     28 CT          -1.4090   -11.0410    -7.9390 c          1 10F       0.943600
     29 O2          -2.7070   -10.4850    -7.8820 o          1 10F      -0.756300
     30 O1          -0.6920   -10.7700    -9.1280 o          1 10F      -0.756300
     31 C18         -3.2760    -4.4570    -2.0400 c          1 10F       0.653900
     32 O5          -3.6280    -3.5080    -1.5110 o          1 10F      -0.544100
     33 O           -1.7940    -8.6010    -7.9060 o          1 10F      -0.461100
     34 C17         -0.8730    -8.1540    -7.3600 c          1 10F       0.560700
     35 HN1         -0.3330     0.8620     0.3850 hn         1 10F       0.394800
     36 H2           1.7880     0.9560    -0.4240 hx         1 10F       0.118700
     37 HNA2         2.2840     0.8910     0.9770 hn         1 10F       0.345133
     38 HNAA         2.7440    -0.6510     1.5060 hn         1 10F       0.345133
     39 HN3          3.1490    -0.6790    -1.0370 hn         1 10F       0.415800
     40 H4           1.6720    -0.4060    -2.7050 h2         1 10F       0.080700
     41 HO4          2.1810    -1.5290    -3.3600 ho         1 10F       0.414000
     42 H4A         -0.0580    -2.2290    -1.1650 h1         1 10F       0.046700
     43 HN5         -0.4850    -2.6250    -2.4940 hn         1 10F       0.376800
     44 H6          -2.0280    -1.4800    -4.0320 h1         1 10F       0.076700
     45 H7          -2.2760    -0.1220    -3.5990 h1         1 10F       0.080700
     46 H7A         -3.7160    -0.5810    -2.6310 h1         1 10F       0.080700
     47 HN8         -2.4090    -0.6620    -0.5890 hn         1 10F       0.345800
     48 H8A         -0.1620     0.6610    -2.0000 h2         1 10F       0.102700
     49 H9          -2.6140    -3.0560    -4.7400 h1         1 10F       0.071200
     50 H9A         -3.8620    -2.8290    -3.5290 h1         1 10F       0.071200
     51 H12         -0.0500    -8.0370    -4.5730 ha         1 10F       0.153500
     52 H13         -0.6230    -6.0850    -2.8760 ha         1 10F       0.156500
     53 H15         -3.7840    -4.5020    -5.8430 ha         1 10F       0.156500
     54 H16         -2.8120    -6.0930    -7.7210 ha         1 10F       0.153500
     55 HN          -0.1100    -8.9960    -5.7740 hn         1 10F       0.468800
     56 HA          -1.2410   -10.7590    -5.8020 hx         1 10F       0.103700
     57 HB          -0.1250   -11.7230    -5.7480 hc         1 10F       0.085700
     58 HBA          0.8670   -12.4560    -6.9230 hc         1 10F       0.085700
     59 HG           0.7510   -10.0270    -4.8910 hc         1 10F       0.087200
     60 HGA          2.3150   -10.6650    -5.3820 hc         1 10F       0.087200
     61 H18         -3.8210    -5.3840    -1.9110 h5         1 10F       0.057200
     62 HA23         1.2890     0.0170     2.0370 hn         1 10F       0.345133
     63 HN31         0.7150    -9.2870    -7.1340 hn         1 10F       0.468800
@<TRIPOS>BOND
     1     1    12 1   
     2     1     2 1   
     3     3     2 1   
     4     4     2 1   
     5     5     4 1   
     6     6     5 1   
     7     7     5 1   
     8     7    12 1   
     9     8     7 1   
    10     9     8 1   
    11     9    10 1   
    12    10    11 1   
    13    11    12 1   
    14    13     9 1   
    15    14    13 1   
    16    15    20 ar  
    17    16    15 ar  
    18    16    17 ar  
    19    17    18 ar  
    20    18    14 1   
    21    18    19 ar  
    22    20    19 ar  
    23    34    15 1   
    24    21    34 1   
    25    22    21 1   
    26    23    22 1   
    27    23    24 1   
    28    25    24 1   
    29    25    26 1   
    30    27    25 1   
    31    28    22 1   
    32    28    29 1   
    33    30    28 1   
    34    31    14 1   
    35    31    32 2   
    36    34    33 2   
    37     1    35 1   
    38     2    36 1   
    39     3    37 1   
    40     3    38 1   
    41     4    39 1   
    42     5    40 1   
    43     6    41 1   
    44     7    42 1   
    45     8    43 1   
    46     9    44 1   
    47    10    45 1   
    48    10    46 1   
    49    11    47 1   
    50    12    48 1   
    51    13    49 1   
    52    13    50 1   
    53    16    51 1   
    54    17    52 1   
    55    19    53 1   
    56    20    54 1   
    57    21    55 1   
    58    22    56 1   
    59    23    57 1   
    60    23    58 1   
    61    24    59 1   
    62    24    60 1   
    63    31    61 1   
    64    62     3 1   
    65    63    21 1   
@<TRIPOS>SUBSTRUCTURE
     1 10F         1 TEMP              0 ****  ****    0 ROOT
