@<TRIPOS>MOLECULE
molecule
   62    64     1     0     0
SMALL
bcc


@<TRIPOS>ATOM
      1 N1           0.0000     0.0000     0.0000 n7         1 10F      -0.822200
      2 C2           1.4700     0.0000     0.0000 c3         1 10F       0.569900
      3 NA2          1.9570     0.0000     1.3860 nz         1 10F      -0.861600
      4 N3           1.9720    -1.1940    -0.6900 n7         1 10F      -0.838200
      5 C4           1.5150    -1.2380    -2.0870 c3         1 10F       0.373300
      6 O4           2.0030    -2.4260    -2.7140 oh         1 10F      -0.507800
      7 C4A         -0.0140    -1.2340    -2.1070 c3         1 10F       0.066500
      8 N5          -0.5090    -1.2090    -3.4890 n7         1 10F      -0.719200
      9 C6          -1.9790    -1.2000    -3.5080 c3         1 10F       0.084500
     10 C7          -2.4980     0.0240    -2.7520 c3         1 10F       0.011800
     11 N8          -1.9840     0.0090    -1.3730 n7         1 10F      -0.788200
     12 C8A         -0.5160     0.0140    -1.3740 c3         1 10F       0.384700
     13 C9          -2.4690    -1.1490    -4.9560 c3         1 10F       0.094000
     14 N10         -1.8810    -2.2590    -5.7110 n          1 10F      -0.386000
     15 C11         -3.8560    -5.9220    -5.9070 ca         1 10F      -0.094600
     16 C12         -4.4010    -4.7970    -6.5340 ca         1 10F      -0.083000
     17 C13         -3.7460    -3.5880    -6.4670 ca         1 10F      -0.142000
     18 C14         -2.5430    -3.4850    -5.7760 ca         1 10F       0.012600
     19 C15         -1.9970    -4.6010    -5.1510 ca         1 10F      -0.142000
     20 C16         -2.6480    -5.8140    -5.2140 ca         1 10F      -0.083000
     21 N           -5.7250    -7.3200    -6.6390 ns         1 10F      -0.539900
     22 CA          -6.4230    -8.6060    -6.7040 c3         1 10F      -0.068300
     23 CB          -7.3070    -8.6450    -7.9510 c3         1 10F      -0.204400
     24 CG          -6.4280    -8.6000    -9.2020 c3         1 10F      -0.226400
     25 CD          -7.2990    -8.6380   -10.4310 c          1 10F       0.901600
     26 OE1         -6.7400    -8.6080   -11.6500 o          1 10F      -0.818800
     27 OE2         -8.5010    -8.6970   -10.3170 o          1 10F      -0.818800
     28 CT          -7.2790    -8.7750    -5.4750 c          1 10F       0.908600
     29 O2          -8.0140    -9.8870    -5.3160 o          1 10F      -0.825800
     30 O1          -7.3040    -7.9090    -4.6330 o          1 10F      -0.825800
     31 C18         -0.7010    -2.0950    -6.3410 c          1 10F       0.664900
     32 O5          -0.2570    -2.9840    -7.0360 o          1 10F      -0.573100
     33 O           -4.0860    -8.1930    -5.4210 o          1 10F      -0.628100
     34 HN1         -0.3340     0.8060     0.4900 hn         1 10F       0.382800
     35 H2           1.8280     0.8850    -0.5120 hx         1 10F       0.036700
     36 HNA2         2.3160     0.8350     0.9670 hn         1 10F       0.453133
     37 HNAA         2.6480    -0.6960     1.5850 hn         1 10F       0.453133
     38 HN3          2.9730    -1.1980    -0.6660 hn         1 10F       0.376800
     39 H4           1.8850    -0.3670    -2.6150 h2         1 10F       0.028700
     40 HO4          2.3350    -1.6820    -3.1880 ho         1 10F       0.414000
     41 H4A         -0.3840    -2.1210    -1.6060 h1         1 10F       0.082700
     42 HN5         -0.6300    -2.0720    -2.9970 hn         1 10F       0.368800
     43 H6          -2.3480    -2.1000    -3.0300 h1         1 10F       0.036700
     44 H7          -2.9010    -0.9470    -2.4890 h1         1 10F       0.108200
     45 H7A         -3.3740     0.5910    -3.0430 h1         1 10F       0.108200
     46 HN8         -2.3150    -0.8090    -0.9020 hn         1 10F       0.375800
     47 H8A         -0.1590     0.9000    -1.8840 h2         1 10F       0.064700
     48 H9          -1.8600    -0.2650    -4.8120 h1         1 10F       0.093200
     49 H9A         -3.5340    -0.9780    -5.0570 h1         1 10F       0.093200
     50 H12         -5.3370    -4.8770    -7.0720 ha         1 10F       0.157500
     51 H13         -4.1670    -2.7170    -6.9530 ha         1 10F       0.122000
     52 H15         -1.0610    -4.5170    -4.6130 ha         1 10F       0.122000
     53 H16         -2.2230    -6.6830    -4.7270 ha         1 10F       0.157500
     54 HN          -6.1320    -6.5090    -7.0610 hn         1 10F       0.307500
     55 HA          -5.6970    -9.4090    -6.7510 h1         1 10F       0.064700
     56 HB          -6.5480    -9.3450    -7.6230 hc         1 10F       0.187200
     57 HBA         -7.4640    -7.5910    -7.7580 hc         1 10F       0.187200
     58 HG          -5.7610    -9.4540    -9.2050 hc         1 10F       0.011200
     59 HGA         -5.8450    -7.6870    -9.2000 hc         1 10F       0.011200
     60 H18         -0.1750    -1.1510    -6.2680 h5         1 10F       0.016200
     61 HA23         1.2400     0.0770     2.0800 hn         1 10F       0.453133
     62 C17         -4.5590    -7.2180    -5.9710 c          1 10F       0.653700
@<TRIPOS>BOND
     1     1    12 1   
     2     1     2 1   
     3     3     2 1   
     4     4     2 1   
     5     5     4 1   
     6     6     5 1   
     7     7     5 1   
     8     7    12 1   
     9     8     7 1   
    10     9     8 1   
    11     9    10 1   
    12    10    11 1   
    13    11    12 1   
    14    13     9 1   
    15    14    13 1   
    16    15    20 ar  
    17    16    15 ar  
    18    16    17 ar  
    19    17    18 ar  
    20    18    14 1   
    21    18    19 ar  
    22    20    19 ar  
    23    62    15 1   
    24    21    62 1   
    25    22    21 1   
    26    23    22 1   
    27    23    24 1   
    28    25    24 1   
    29    25    26 1   
    30    27    25 1   
    31    28    22 1   
    32    28    29 1   
    33    30    28 1   
    34    31    14 1   
    35    31    32 2   
    36    62    33 2   
    37     1    34 1   
    38     2    35 1   
    39     3    36 1   
    40     3    37 1   
    41     4    38 1   
    42     5    39 1   
    43     6    40 1   
    44     7    41 1   
    45     8    42 1   
    46     9    43 1   
    47    10    44 1   
    48    10    45 1   
    49    11    46 1   
    50    12    47 1   
    51    13    48 1   
    52    13    49 1   
    53    16    50 1   
    54    17    51 1   
    55    19    52 1   
    56    20    53 1   
    57    21    54 1   
    58    22    55 1   
    59    23    56 1   
    60    23    57 1   
    61    24    58 1   
    62    24    59 1   
    63    31    60 1   
    64    61     3 1   
@<TRIPOS>SUBSTRUCTURE
     1 10F         1 TEMP              0 ****  ****    0 ROOT
