@<TRIPOS>MOLECULE
10F
   63    64     1     0     0
SMALL
bcc


@<TRIPOS>ATOM
      1 N1         -2.5720   -2.5350   -1.3350 n3        1 10F     -0.302400
      2 C2         -1.5640   -3.0320   -0.5990 c1        1 10F     -0.087000
      3 NA2        -2.6690   -5.3940    0.1430 n4        1 10F     -0.993200
      4 N3         -0.3150   -2.5140   -0.6560 n3        1 10F     -0.359400
      5 C4          0.0970   -1.6010   -1.7260 c3        1 10F      0.205800
      6 O4          1.3940   -1.9360   -2.1990 oh        1 10F     -0.595800
      7 C4A        -0.8660   -1.7480   -2.9450 c3        1 10F      0.104500
      8 N5         -0.5760   -0.8090   -4.0220 n3        1 10F     -0.792200
      9 C6         -1.5380   -1.0500   -5.1020 c3        1 10F      0.101500
     10 C7         -2.9690   -0.7300   -4.5820 c3        1 10F      0.167800
     11 N8         -3.3630   -1.5250   -3.4400 n3        1 10F     -0.809200
     12 C8A        -2.3400   -1.5400   -2.3900 c3        1 10F      0.242200
     13 C9         -1.2620   -0.2520   -6.4020 c3        1 10F      0.106000
     14 N10        -0.9090   -1.0830   -7.5420 n         1 10F     -0.414000
     15 C11        -2.7630   -4.7900   -6.9740 ca        1 10F     -0.149600
     16 C12        -3.5510   -3.6530   -7.1770 ca        1 10F     -0.086500
     17 C13        -2.9500   -2.4430   -7.5050 ca        1 10F     -0.151500
     18 C14        -1.5410   -2.3560   -7.5970 ca        1 10F      0.058600
     19 C15        -0.7870   -3.5500   -7.6040 ca        1 10F     -0.151500
     20 C16        -1.4020   -4.7580   -7.2910 ca        1 10F     -0.086500
     21 N          -3.9720   -5.7660   -5.1080 n         1 10F     -0.539900
     22 CA         -4.1110   -6.7770   -4.0830 c3        1 10F      0.002700
     23 CB         -5.5400   -7.3250   -3.9480 c3        1 10F     -0.074400
     24 CG         -5.9850   -8.0930   -5.1750 c3        1 10F     -0.170400
     25 CD         -6.6770   -7.2070   -6.1680 c         1 10F      0.635100
     26 OE1        -7.7500   -6.6190   -6.0120 o         1 10F     -0.518000
     27 OE2        -6.1260   -7.0120   -7.4010 oh        1 10F     -0.597100
     28 CT         -3.6880   -6.2520   -2.6920 c         1 10F      0.908600
     29 O2         -3.2930   -7.0890   -1.8270 o         1 10F     -0.874800
     30 O1         -3.7320   -5.0100   -2.4060 o         1 10F     -0.874800
     31 C18         0.1700   -0.7430   -8.3450 c         1 10F      0.664900
     32 O5          0.6220   -1.4770   -9.2340 o         1 10F     -0.572100
     33 O          -3.1980   -7.1540   -6.7710 o         1 10F     -0.629100
     34 HN1        -3.4250   -3.0600   -1.3730 hn        1 10F      0.333700
     35 H2         -2.0490   -4.5180    0.1030 hn        1 10F      0.461300
     36 HNA2       -2.2190   -6.1870   -0.3350 hn        1 10F      0.461300
     37 HNAA       -3.5210   -5.2050   -0.4140 hn        1 10F      0.461300
     38 HN3         0.4040   -2.9720   -0.1480 hn        1 10F      0.294700
     39 H4          0.0790   -0.5430   -1.3290 h2        1 10F      0.069700
     40 HO4         2.0380   -1.5020   -1.6250 ho        1 10F      0.414000
     41 H4A        -0.7710   -2.8170   -3.3140 h1        1 10F      0.057700
     42 HN5         0.3660   -0.9480   -4.3430 hn        1 10F      0.375800
     43 H6         -1.5370   -2.1630   -5.3450 h1        1 10F      0.048700
     44 H7         -3.7010   -0.9240   -5.4150 h1        1 10F      0.068700
     45 H7A        -3.0300    0.3560   -4.2930 h1        1 10F      0.068700
     46 HN8        -3.6070   -2.4620   -3.7210 hn        1 10F      0.382800
     47 H8A        -2.3810   -0.5130   -1.9030 h2        1 10F      0.084700
     48 H9         -0.4440    0.5050   -6.2320 h1        1 10F      0.060700
     49 H9A        -2.1990    0.3190   -6.6690 h1        1 10F      0.060700
     50 H12        -4.6450   -3.7090   -7.0580 ha        1 10F      0.157000
     51 H13        -3.5710   -1.5450   -7.6440 ha        1 10F      0.152000
     52 H15         0.2900   -3.5210   -7.8350 ha        1 10F      0.152000
     53 H16        -0.8120   -5.6880   -7.2520 ha        1 10F      0.157000
     54 HN         -4.0170   -4.8270   -4.7710 hn        1 10F      0.319500
     55 HA         -3.4280   -7.6440   -4.3380 h1        1 10F      0.084700
     56 HB         -5.5350   -8.0160   -3.0630 hc        1 10F      0.069200
     57 HBA        -6.2600   -6.4940   -3.7310 hc        1 10F      0.069200
     58 HG         -5.1040   -8.6000   -5.6530 hc        1 10F      0.075200
     59 HGA        -6.7200   -8.8870   -4.8710 hc        1 10F      0.075200
     60 H18         0.5770    0.2760   -8.1370 h5        1 10F      0.034200
     61 HA23       -2.9110   -5.6470    1.0890 hn        1 10F      0.461300
     62 HN31       -5.2520   -7.4310   -7.4500 ho        1 10F      0.448000
     63 C17        -3.3170   -6.0020   -6.3000 c         1 10F      0.671700
@<TRIPOS>BOND
     1    1    2 2   
     2    1   12 1   
     3    1   34 1   
     4    2    4 2   
     5    3   35 1   
     6    3   36 1   
     7    3   37 1   
     8    3   61 1   
     9    4    5 1   
    10    4   38 1   
    11    5    6 1   
    12    5    7 1   
    13    5   39 1   
    14    6   40 1   
    15    7    8 1   
    16    7   12 1   
    17    7   41 1   
    18    8    9 1   
    19    8   42 1   
    20    9   10 1   
    21    9   13 1   
    22    9   43 1   
    23   10   11 1   
    24   10   44 1   
    25   10   45 1   
    26   11   12 1   
    27   11   46 1   
    28   12   47 1   
    29   13   14 1   
    30   13   48 1   
    31   13   49 1   
    32   14   18 1   
    33   14   31 1   
    34   15   16 ar  
    35   15   20 ar  
    36   15   63 1   
    37   16   17 ar  
    38   16   50 1   
    39   17   18 ar  
    40   17   51 1   
    41   18   19 ar  
    42   19   20 ar  
    43   19   52 1   
    44   20   53 1   
    45   21   22 1   
    46   21   54 1   
    47   21   63 1   
    48   22   23 1   
    49   22   28 1   
    50   22   55 1   
    51   23   24 1   
    52   23   56 1   
    53   23   57 1   
    54   24   25 1   
    55   24   58 1   
    56   24   59 1   
    57   25   26 2   
    58   25   27 1   
    59   27   62 1   
    60   28   29 1   
    61   28   30 1   
    62   31   32 2   
    63   31   60 1   
    64   33   63 2   
@<TRIPOS>SUBSTRUCTURE
     1 10F         1 TEMP              0 ****  ****    0 ROOT
