@<TRIPOS>MOLECULE
10G
   24    23     1     0     0
SMALL
bcc


@<TRIPOS>ATOM
      1 O13          0.0830    -0.0100     0.2940 o          1 10G      -0.954833
      2 P12          1.5150     0.3710     0.0570 p5         1 10G       1.470900
      3 O14          2.4830    -0.1470     1.1040 o          1 10G      -0.954833
      4 O15          1.7410     1.8090    -0.3080 o          1 10G      -0.954833
      5 O11          1.9820    -0.5480    -1.3730 os         1 10G      -0.821800
      6 P8           2.4040    -1.3350    -2.6630 p5         1 10G       1.572800
      7 O9           1.8670    -2.7260    -2.7350 o          1 10G      -0.919500
      8 O10          2.4500    -0.5580    -3.9310 o          1 10G      -0.919500
      9 O7           4.0460    -1.6010    -2.2910 os         1 10G      -0.580200
     10 C6           4.3130    -2.5790    -1.3510 c3         1 10G       0.218600
     11 C5           4.4530    -2.0380     0.0330 c2         1 10G      -0.099200
     12 C3           5.2010    -2.5360     1.0380 c2         1 10G      -0.285400
     13 C4           6.1240    -3.6860     0.9340 c3         1 10G      -0.012900
     14 C1           5.0580    -1.9230     2.3710 c3         1 10G       0.152900
     15 S2           6.4900    -0.9150     2.8770 sh         1 10G      -0.641900
     16 H4           5.2600    -3.1130    -1.6680 h1         1 10G       0.007200
     17 H5           3.4660    -3.3330    -1.3340 h1         1 10G       0.007200
     18 H6           3.7610    -1.1520     0.2450 ha         1 10G       0.273000
     19 H7           7.0630    -3.4930     1.5130 hc         1 10G      -0.001300
     20 H8           6.4030    -3.8910    -0.1290 hc         1 10G      -0.001300
     21 H9           5.6530    -4.6130     1.3510 hc         1 10G      -0.001300
     22 H10          5.0100    -2.6870     3.1820 h1         1 10G       0.089700
     23 H11          4.1470    -1.2540     2.3890 h1         1 10G       0.089700
     24 H12          6.3050     0.1110     2.0530 hs         1 10G       0.264800
@<TRIPOS>BOND
     1     1     2 1   
     2     2     3 1   
     3     2     4 1   
     4     2     5 1   
     5     5     6 1   
     6     6     7 1   
     7     6     8 1   
     8     6     9 1   
     9     9    10 1   
    10    10    11 1   
    11    10    16 1   
    12    10    17 1   
    13    11    12 2   
    14    11    18 1   
    15    12    13 1   
    16    12    14 1   
    17    13    19 1   
    18    13    20 1   
    19    13    21 1   
    20    14    15 1   
    21    14    22 1   
    22    14    23 1   
    23    15    24 1   
@<TRIPOS>SUBSTRUCTURE
     1 10G         1 TEMP              0 ****  ****    0 ROOT
