@<TRIPOS>MOLECULE
10G
   24    23     1     0     0
SMALL
bcc


@<TRIPOS>ATOM
      1 O13         2.4390    3.9970   -0.0300 o         1 10G     -0.954833
      2 P12         2.3770    2.4830    0.0410 p5        1 10G      1.470900
      3 O14         3.7200    1.8360    0.2140 o         1 10G     -0.954833
      4 O15         1.2910    1.9480    0.9280 o         1 10G     -0.954833
      5 O11         1.8630    2.0520   -1.5900 os        1 10G     -0.821800
      6 P8          1.4350    1.6490   -3.0440 p5        1 10G      1.572800
      7 O9          2.1330    0.4800   -3.6430 o         1 10G     -0.919500
      8 O10        -0.0290    1.7780   -3.3100 o         1 10G     -0.919500
      9 O7          2.0750    2.9810   -3.8930 os        1 10G     -0.580200
     10 C6          1.3760    4.1690   -3.7890 c3        1 10G      0.218600
     11 C5          1.8920    5.0600   -2.7090 c2        1 10G     -0.099200
     12 C3          1.8550    6.4070   -2.6670 c2        1 10G     -0.285400
     13 C4          1.3700    7.2880   -3.7500 c3        1 10G     -0.012900
     14 C1          2.2820    7.0690   -1.4200 c3        1 10G      0.152900
     15 S2          3.8900    7.9190   -1.5510 sh        1 10G     -0.641900
     16 H4          1.4290    4.6890   -4.7940 h1        1 10G      0.007200
     17 H5          0.2880    3.9520   -3.5560 h1        1 10G      0.007200
     18 H6          2.2740    4.4880   -1.7940 ha        1 10G      0.273000
     19 H7          2.0250    8.1920   -3.8480 hc        1 10G     -0.001300
     20 H8          1.3580    6.7560   -4.7330 hc        1 10G     -0.001300
     21 H9          0.3290    7.6440   -3.5380 hc        1 10G     -0.001300
     22 H10         2.3670    6.3060   -0.5910 h1        1 10G      0.089700
     23 H11         1.6000    7.9010   -1.1300 h1        1 10G      0.089700
     24 H12         4.6720    6.8450   -1.6050 hs        1 10G      0.264800
@<TRIPOS>BOND
     1    1    2 1   
     2    2    3 1   
     3    2    4 1   
     4    2    5 1   
     5    5    6 1   
     6    6    7 1   
     7    6    8 1   
     8    6    9 1   
     9    9   10 1   
    10   10   11 1   
    11   10   16 1   
    12   10   17 1   
    13   11   12 2   
    14   11   18 1   
    15   12   13 1   
    16   12   14 1   
    17   13   19 1   
    18   13   20 1   
    19   13   21 1   
    20   14   15 1   
    21   14   22 1   
    22   14   23 1   
    23   15   24 1   
@<TRIPOS>SUBSTRUCTURE
     1 10G         1 TEMP              0 ****  ****    0 ROOT
