@<TRIPOS>MOLECULE
molecule
   24    23     1     0     0
SMALL
bcc


@<TRIPOS>ATOM
      1 O13          0.0000     0.0000     0.0000 o          1 10G      -0.920500
      2 P12          1.4790     0.0000     0.0000 p5         1 10G       1.299900
      3 O14          2.0170     0.0000     1.5180 o          1 10G      -0.920500
      4 O15          2.0160    -1.3150    -0.7590 o          1 10G      -0.920500
      5 O11          2.0160     1.3150    -0.7590 os         1 10G      -0.702800
      6 P8           1.5520     2.1120    -2.0790 p5         1 10G       1.402800
      7 O9           1.9940     1.2860    -3.3880 o          1 10G      -0.849000
      8 O10          0.0800     2.2680    -2.0680 o          1 10G      -0.849000
      9 O7           2.2450     3.5650    -2.1000 os         1 10G      -0.545200
     10 C6           1.9530     4.5520    -3.0910 c3         1 10G       0.234600
     11 C5           2.7700     5.7900    -2.8230 c2         1 10G      -0.442200
     12 C3           2.2100     6.9720    -2.8920 c2         1 10G      -0.063400
     13 C4           0.7840     7.1040    -3.3620 c3         1 10G      -0.101900
     14 C1           2.9900     8.2000    -2.4990 c3         1 10G       0.126900
     15 S2           3.4820     9.1060    -3.9920 sh         1 10G      -0.511900
     16 H4           2.1980     4.1630    -4.0720 h1         1 10G       0.012700
     17 H5           0.8990     4.8000    -3.0530 h1         1 10G       0.012700
     18 H6           2.5810     5.4370    -3.8290 ha         1 10G       0.340000
     19 H7           0.6640     6.5820    -4.3030 hc         1 10G       0.038033
     20 H8           0.5440     8.1520    -3.4970 hc         1 10G       0.038033
     21 H9           0.1190     6.6740    -2.6230 hc         1 10G       0.038033
     22 H10          3.8740     7.9050    -1.9470 h1         1 10G       0.056200
     23 H11          2.3720     8.8370    -1.8770 h1         1 10G       0.056200
     24 H12          4.3390    10.0660    -3.6650 hs         1 10G       0.170800
@<TRIPOS>BOND
     1     1     2 1   
     2     8     6 1   
     3     7     6 1   
     4     2     5 1   
     5     2     3 1   
     6     2     4 1   
     7     5     6 1   
     8     6     9 1   
     9     9    10 1   
    10    13    12 1   
    11    14    12 1   
    12    14    15 1   
    13    12    11 2   
    14    11    10 1   
    15    10    16 1   
    16    10    17 1   
    17    11    18 1   
    18    13    19 1   
    19    13    20 1   
    20    13    21 1   
    21    14    22 1   
    22    14    23 1   
    23    15    24 1   
@<TRIPOS>SUBSTRUCTURE
     1 10G         1 TEMP              0 ****  ****    0 ROOT
