@<TRIPOS>MOLECULE
10H
   42    44     1     0     0
SMALL
bcc


@<TRIPOS>ATOM
      1 CAA          0.2380    -0.4830     0.4610 c3         1 10H      -0.111100
      2 CAS          1.6640    -0.0240     0.1440 c3         1 10H       0.234500
      3 CAM          2.4590     0.1280     1.4540 c3         1 10H      -0.082400
      4 CAI          2.1150     1.4030     2.1920 c3         1 10H      -0.075400
      5 CAJ          2.2530     2.6060     1.2850 c3         1 10H      -0.088400
      6 CAO          1.4430     2.4120     0.0030 c3         1 10H       0.223800
      7 NAU          1.7170     1.1710    -0.6770 n3         1 10H      -0.810500
      8 SAV          2.0540     1.1180    -2.2680 sy         1 10H       1.511200
      9 OAC          2.6630     2.3290    -2.6700 o          1 10H      -0.655800
     10 OAD          2.7560    -0.0730    -2.5710 o          1 10H      -0.655800
     11 CAR          0.5340     1.0310    -2.9940 ca         1 10H      -0.405500
     12 CAH         -0.0890    -0.2010    -3.2180 ca         1 10H       0.008500
     13 CAF         -1.3240    -0.2910    -3.8430 ca         1 10H      -0.194500
     14 CAG         -0.1270     2.1880    -3.4240 ca         1 10H       0.008500
     15 CAE         -1.3630     2.1320    -4.0530 ca         1 10H      -0.194500
     16 CAQ         -1.9890     0.8820    -4.2790 ca         1 10H       0.141600
     17 NAT         -3.2310     0.8060    -4.9190 n          1 10H      -0.317200
     18 CAN         -3.7440    -0.3710    -5.5280 c2         1 10H      -0.029400
     19 CAK         -4.9820    -0.1640    -6.0520 c2         1 10H      -0.245200
     20 CAL         -5.4000     1.2560    -5.8110 c3         1 10H      -0.120200
     21 CAP         -4.1960     1.8490    -5.0640 c          1 10H       0.701500
     22 OAB         -4.0740     3.0050    -4.6550 o          1 10H      -0.581500
     23 H1           0.2830    -1.4440     1.0280 hc         1 10H       0.041033
     24 H2          -0.3420    -0.6500    -0.4790 hc         1 10H       0.041033
     25 H3          -0.2990     0.2740     1.0800 hc         1 10H       0.041033
     26 H4           2.1620    -0.8550    -0.4500 h1         1 10H       0.071700
     27 H5           2.2450    -0.7600     2.1020 hc         1 10H       0.050200
     28 H6           3.5550     0.1200     1.2160 hc         1 10H       0.050200
     29 H7           2.7910     1.5170     3.0790 hc         1 10H       0.042200
     30 H8           1.0630     1.3430     2.5780 hc         1 10H       0.042200
     31 H9           1.8780     3.5260     1.8020 hc         1 10H       0.051200
     32 H10          3.3330     2.7700     1.0340 hc         1 10H       0.051200
     33 H11          0.3460     2.4540     0.2670 h1         1 10H       0.049700
     34 H12          1.6690     3.2650    -0.7010 h1         1 10H       0.049700
     35 H13          0.4230    -1.1270    -2.9000 ha         1 10H       0.154000
     36 H14         -1.7770    -1.2830    -3.9840 ha         1 10H       0.156000
     37 H15          0.3570     3.1700    -3.2750 ha         1 10H       0.154000
     38 H16         -1.8520     3.0680    -4.3700 ha         1 10H       0.156000
     39 H17         -3.1360    -1.2820    -5.5440 h4         1 10H       0.175000
     40 H18         -5.6060    -0.8810    -6.5790 ha         1 10H       0.166000
     41 H19         -6.3140     1.3310    -5.1710 hc         1 10H       0.098700
     42 H20         -5.5690     1.8190    -6.7620 hc         1 10H       0.098700
@<TRIPOS>BOND
     1     1     2 1   
     2     1    23 1   
     3     1    24 1   
     4     1    25 1   
     5     2     3 1   
     6     2     7 1   
     7     2    26 1   
     8     3     4 1   
     9     3    27 1   
    10     3    28 1   
    11     4     5 1   
    12     4    29 1   
    13     4    30 1   
    14     5     6 1   
    15     5    31 1   
    16     5    32 1   
    17     6     7 1   
    18     6    33 1   
    19     6    34 1   
    20     7     8 1   
    21     8     9 2   
    22     8    10 2   
    23     8    11 1   
    24    11    12 ar  
    25    11    14 ar  
    26    12    13 ar  
    27    12    35 1   
    28    13    16 ar  
    29    13    36 1   
    30    14    15 ar  
    31    14    37 1   
    32    15    16 ar  
    33    15    38 1   
    34    16    17 1   
    35    17    18 1   
    36    17    21 1   
    37    18    19 2   
    38    18    39 1   
    39    19    20 1   
    40    19    40 1   
    41    20    21 1   
    42    20    41 1   
    43    20    42 1   
    44    21    22 2   
@<TRIPOS>SUBSTRUCTURE
     1 10H         1 TEMP              0 ****  ****    0 ROOT
