@<TRIPOS>MOLECULE
10H
   42    44     1     0     0
SMALL
bcc


@<TRIPOS>ATOM
      1 CAA          0.0000     0.0000     0.0000 c3         1 10H      -0.084100
      2 CAS          1.5310     0.0000     0.0000 c3         1 10H       0.223500
      3 CAM          2.0440     0.0000     1.4430 c3         1 10H      -0.041400
      4 CAI          3.5670     0.1400     1.4380 c3         1 10H      -0.022400
      5 CAJ          3.9570     1.4690     0.7880 c3         1 10H      -0.040400
      6 CAO          3.4660     1.4860    -0.6630 c3         1 10H       0.230800
      7 NAU          2.0230     1.2080    -0.6770 n3         1 10H      -0.526500
      8 SAV          0.9720     2.2350    -1.4410 sy         1 10H       1.056200
      9 OAC         -0.2420     2.1860    -0.7040 o          1 10H      -0.592800
     10 OAD          1.6900     3.4370    -1.6790 o          1 10H      -0.592800
     11 CAR          0.6230     1.5420    -3.0230 ca         1 10H      -0.178500
     12 CAH         -0.5250     0.7940    -3.2100 ca         1 10H       0.026500
     13 CAF         -0.8010     0.2500    -4.4490 ca         1 10H      -0.176500
     14 CAG          1.4940     1.7530    -4.0760 ca         1 10H       0.026500
     15 CAE          1.2230     1.2120    -5.3170 ca         1 10H      -0.176500
     16 CAQ          0.0740     0.4540    -5.5060 ca         1 10H      -0.038400
     17 NAT         -0.2030    -0.0950    -6.7640 n          1 10H       0.151800
     18 CAN          0.6050     0.0580    -7.8770 c2         1 10H      -0.178400
     19 CAK          0.1230    -0.5560    -8.9370 c2         1 10H      -0.194200
     20 CAL         -1.1720    -1.2120    -8.5060 c3         1 10H      -0.081200
     21 CAP         -1.2890    -0.8450    -7.0400 c          1 10H       0.608500
     22 OAB         -2.1780    -1.1570    -6.2760 o          1 10H      -0.633500
     23 H1          -0.3610     0.8570     0.5550 hc         1 10H       0.038367
     24 H2          -0.3610    -0.9090     0.4650 hc         1 10H       0.038367
     25 H3          -0.3610     0.0520    -1.0200 hc         1 10H       0.038367
     26 H4           1.8990    -0.8790    -0.5150 h1         1 10H       0.012700
     27 H5           1.7690    -0.9320     1.9230 hc         1 10H       0.023200
     28 H6           1.6070     0.8330     1.9810 hc         1 10H       0.023200
     29 H7           4.0020    -0.6770     0.8750 hc         1 10H       0.012200
     30 H8           3.9340     0.1180     2.4580 hc         1 10H       0.012200
     31 H9           5.0350     1.5760     0.8040 hc         1 10H       0.020700
     32 H10          3.4990     2.2860     1.3330 hc         1 10H       0.020700
     33 H11          3.6510     2.4610    -1.0970 h1         1 10H       0.023200
     34 H12          3.9870     0.7250    -1.2310 h1         1 10H       0.023200
     35 H13         -1.2080     0.6340    -2.3850 ha         1 10H       0.127500
     36 H14         -1.6990    -0.3380    -4.5950 ha         1 10H       0.144000
     37 H15          2.3890     2.3440    -3.9270 ha         1 10H       0.127500
     38 H16          1.9070     1.3750    -6.1410 ha         1 10H       0.144000
     39 H17          1.6750     0.1730    -7.7570 h4         1 10H       0.143000
     40 H18          0.5650    -0.5830    -9.9260 ha         1 10H       0.140000
     41 H19         -2.0060    -0.8070    -9.0660 hc         1 10H       0.059200
     42 H20         -1.1100    -2.2870    -8.6250 hc         1 10H       0.059200
@<TRIPOS>BOND
     1     1     2 1   
     2     1    23 1   
     3     1    24 1   
     4     1    25 1   
     5     2     3 1   
     6     2     7 1   
     7     2    26 1   
     8     3     4 1   
     9     3    27 1   
    10     3    28 1   
    11     4     5 1   
    12     4    29 1   
    13     4    30 1   
    14     5     6 1   
    15     5    31 1   
    16     5    32 1   
    17     6     7 1   
    18     6    33 1   
    19     6    34 1   
    20     7     8 1   
    21     8     9 2   
    22     8    10 2   
    23     8    11 1   
    24    11    12 ar  
    25    11    14 ar  
    26    12    13 ar  
    27    12    35 1   
    28    13    16 ar  
    29    13    36 1   
    30    14    15 ar  
    31    14    37 1   
    32    15    16 ar  
    33    15    38 1   
    34    16    17 1   
    35    17    18 1   
    36    17    21 1   
    37    18    19 2   
    38    18    39 1   
    39    19    20 1   
    40    19    40 1   
    41    20    21 1   
    42    20    41 1   
    43    20    42 1   
    44    21    22 2   
@<TRIPOS>SUBSTRUCTURE
     1 10H         1 TEMP              0 ****  ****    0 ROOT
