@<TRIPOS>MOLECULE
molecule
   54    58     1     0     0
SMALL
bcc


@<TRIPOS>ATOM
      1 C1           0.0000     0.0000     0.0000 c3         1 10J       0.276500
      2 C2           1.5440     0.0000     0.0000 c3         1 10J      -0.146700
      3 N3           1.3680     0.2980     2.4770 n          1 10J      -0.367300
      4 C4           0.0190     0.5890     2.3680 c2         1 10J       0.680800
      5 C5           2.0920     0.0000     1.3900 c          1 10J       0.712500
      6 N6          -0.4750     0.8470     1.1030 nu         1 10J      -0.875200
      7 N7           0.7330     1.7320    -1.4930 n          1 10J      -0.492800
      8 C8          -0.5720    -1.3920     0.0670 cc         1 10J      -0.071400
      9 C9          -0.3250     0.7190    -1.3330 c3         1 10J       0.120000
     10 C10          0.6370     2.8590    -2.2260 c          1 10J       0.698700
     11 C11          1.9110     1.3100    -0.7200 c3         1 10J       0.114000
     12 C12         -1.7350    -1.7150     0.6280 cd         1 10J      -0.124000
     13 C13         -2.0580    -3.0690     0.5710 cd         1 10J      -0.064000
     14 S14          0.1950    -2.8310    -0.5900 ss         1 10J      -0.111800
     15 C15         -1.1410    -3.8360    -0.0440 cc         1 10J      -0.054100
     16 C16         -4.7600    -5.4910     1.5930 ca         1 10J      -0.014000
     17 C17          1.7400     3.8450    -2.2140 ca         1 10J      -0.140600
     18 C18         -3.3120    -3.6190     1.1430 ca         1 10J      -0.019000
     19 N19         -5.2660    -8.0030     1.4170 n1         1 10J      -0.356800
     20 C20         -5.0430    -6.8920     1.5060 cg         1 10J       0.236800
     21 N21         -0.7540     0.6190     3.4150 n2         1 10J      -0.902100
     22 C22         -3.5790    -4.9810     1.0540 ca         1 10J      -0.083000
     23 O23          3.2610    -0.2870     1.5430 o          1 10J      -0.617500
     24 C24         -5.6680    -4.6310     2.2140 ca         1 10J      -0.089000
     25 O25         -0.3550     3.0640    -2.8970 o          1 10J      -0.596100
     26 C26          1.4580     5.2100    -2.1680 ca         1 10J      -0.093000
     27 C27         -4.2300    -2.7700     1.7610 ca         1 10J      -0.098000
     28 C28         -5.3980    -3.2790     2.2940 ca         1 10J      -0.127000
     29 C29          2.0110     0.3190     3.7940 c3         1 10J       0.107300
     30 C30          2.4900     6.1250    -2.1570 ca         1 10J      -0.134500
     31 C31          3.0660     3.4120    -2.2450 ca         1 10J      -0.093000
     32 C32          4.0900     4.3370    -2.2330 ca         1 10J      -0.134500
     33 C33          3.8040     5.6900    -2.1920 ca         1 10J      -0.107000
     34 H1           1.9200    -0.8520    -0.5540 hc         1 10J       0.103700
     35 H2          -1.2950     1.1970    -1.2730 h1         1 10J       0.069700
     36 H3          -0.2960     0.0140    -2.1550 h1         1 10J       0.069700
     37 H4           2.7460     1.1400    -1.3880 h1         1 10J       0.063700
     38 H5           2.1630     2.0710     0.0090 h1         1 10J       0.063700
     39 H6          -2.3810    -0.9800     1.0940 ha         1 10J       0.145000
     40 H7          -1.2150    -4.9070    -0.1860 h4         1 10J       0.180000
     41 H8          -1.7260     0.8310     3.3140 hn         1 10J       0.409400
     42 H10         -2.8310    -5.6550     0.6530 ha         1 10J       0.143000
     43 H11         -6.5860    -5.0240     2.6340 ha         1 10J       0.144000
     44 H12          0.4300     5.5520    -2.1400 ha         1 10J       0.143000
     45 H13         -4.0250    -1.7080     1.8270 ha         1 10J       0.134000
     46 H14         -6.1060    -2.6150     2.7750 ha         1 10J       0.141000
     47 H15          1.4450     0.9560     4.4620 h1         1 10J       0.060367
     48 H16          3.0200     0.7020     3.6970 h1         1 10J       0.060367
     49 H17          2.0440    -0.6870     4.1950 h1         1 10J       0.060367
     50 H18          2.2730     7.1860    -2.1230 ha         1 10J       0.136000
     51 H19          3.2920     2.3530    -2.2770 ha         1 10J       0.143000
     52 H20          5.1210     4.0030    -2.2590 ha         1 10J       0.136000
     53 H21          4.6120     6.4120    -2.1830 ha         1 10J       0.133000
     54 H22         -1.4350     1.1230     1.0430 hn         1 10J       0.428800
@<TRIPOS>BOND
     1    28    27 ar  
     2    28    24 ar  
     3    27    18 ar  
     4    15    14 1   
     5    15    13 2   
     6    14     8 1   
     7    24    16 ar  
     8    18    13 1   
     9    18    22 ar  
    10    13    12 1   
    11    25    10 2   
    12     8    12 2   
    13     8     1 1   
    14     9     1 1   
    15     9     7 1   
    16    16    22 ar  
    17    16    20 1   
    18    10     7 1   
    19    10    17 1   
    20     1     2 1   
    21     1     6 1   
    22     7    11 1   
    23    31    17 ar  
    24    31    32 ar  
    25    20    19 3   
    26     2    11 1   
    27     2     5 1   
    28    17    26 ar  
    29     6     4 1   
    30    32    33 ar  
    31     5    23 2   
    32     5     3 1   
    33     4     3 1   
    34     4    21 2   
    35    26    30 ar  
    36     3    29 1   
    37    33    30 ar  
    38     2    34 1   
    39     9    35 1   
    40     9    36 1   
    41    11    37 1   
    42    11    38 1   
    43    12    39 1   
    44    15    40 1   
    45    21    41 1   
    46    22    42 1   
    47    24    43 1   
    48    26    44 1   
    49    27    45 1   
    50    28    46 1   
    51    29    47 1   
    52    29    48 1   
    53    29    49 1   
    54    30    50 1   
    55    31    51 1   
    56    32    52 1   
    57    33    53 1   
    58     6    54 1   
@<TRIPOS>SUBSTRUCTURE
     1 10J         1 TEMP              0 ****  ****    0 ROOT
