@<TRIPOS>MOLECULE
10J
   54    58     1     0     0
SMALL
bcc


@<TRIPOS>ATOM
      1 C1           0.0000     0.0000     0.0000 c3         1 10J       0.219500
      2 C2           1.5440     0.0000     0.0000 c3         1 10J      -0.138700
      3 N3           1.3680     0.2980     2.4770 n          1 10J      -0.048300
      4 C4           0.0190     0.5890     2.3680 c2         1 10J       0.399800
      5 C5           2.0920     0.0000     1.3900 c          1 10J       0.629500
      6 N6          -0.4750     0.8470     1.1030 nu         1 10J      -0.516200
      7 N7           0.7330     1.7320    -1.4930 n          1 10J      -0.171800
      8 C8          -0.5720    -1.3920     0.0670 cc         1 10J      -0.023400
      9 C9          -0.3250     0.7190    -1.3330 c3         1 10J       0.058000
     10 C10          0.6370     2.8590    -2.2260 c          1 10J       0.633700
     11 C11          1.9110     1.3100    -0.7200 c3         1 10J       0.056000
     12 C12         -1.7350    -1.7150     0.6280 cd         1 10J      -0.089000
     13 C13         -2.0580    -3.0690     0.5710 cd         1 10J      -0.061000
     14 S14          0.1950    -2.8310    -0.5900 ss         1 10J      -0.248800
     15 C15         -1.1410    -3.8360    -0.0440 cc         1 10J       0.021900
     16 C16         -4.7600    -5.4910     1.5930 ca         1 10J       0.032000
     17 C17          1.7400     3.8450    -2.2140 ca         1 10J      -0.153600
     18 C18         -3.3120    -3.6190     1.1430 ca         1 10J      -0.017000
     19 N19         -5.2610    -8.0060     1.4560 n1         1 10J      -0.377800
     20 C20         -5.0430    -6.8920     1.5060 cg         1 10J       0.228800
     21 N21         -0.7540     0.6190     3.4150 n2         1 10J      -0.759100
     22 C22         -3.5790    -4.9810     1.0540 ca         1 10J      -0.071000
     23 O23          3.2610    -0.2870     1.5430 o          1 10J      -0.659500
     24 C24         -5.6680    -4.6310     2.2140 ca         1 10J      -0.071000
     25 O25         -0.3550     3.0640    -2.8970 o          1 10J      -0.634100
     26 C26          1.4580     5.2100    -2.1680 ca         1 10J      -0.070000
     27 C27         -4.2300    -2.7700     1.7610 ca         1 10J      -0.075000
     28 C28         -5.3980    -3.2790     2.2940 ca         1 10J      -0.095000
     29 C29          2.0110     0.3190     3.7940 c3         1 10J       0.059300
     30 C30          2.4900     6.1250    -2.1570 ca         1 10J      -0.106500
     31 C31          3.0660     3.4120    -2.2450 ca         1 10J      -0.070000
     32 C32          4.0900     4.3370    -2.2330 ca         1 10J      -0.106500
     33 C33          3.8040     5.6900    -2.1920 ca         1 10J      -0.079000
     34 H1           1.9200    -0.8520    -0.5540 hc         1 10J       0.085700
     35 H2          -0.2960     0.0140    -2.1550 h1         1 10J       0.043200
     36 H3          -1.2950     1.1970    -1.2730 h1         1 10J       0.043200
     37 H4           2.7460     1.1400    -1.3880 h1         1 10J       0.035200
     38 H5           2.1630     2.0710     0.0090 h1         1 10J       0.035200
     39 H6          -2.3810    -0.9800     1.0940 ha         1 10J       0.141000
     40 H7          -1.2150    -4.9070    -0.1860 h4         1 10J       0.159000
     41 H8          -0.3750     0.4290     4.3220 hn         1 10J       0.339400
     42 H10         -2.8310    -5.6550     0.6540 ha         1 10J       0.118000
     43 H11         -6.5860    -5.0240     2.6340 ha         1 10J       0.114000
     44 H12          0.4300     5.5520    -2.1400 ha         1 10J       0.118000
     45 H13         -4.0250    -1.7080     1.8270 ha         1 10J       0.117000
     46 H14         -6.1060    -2.6150     2.7750 ha         1 10J       0.111000
     47 H15          1.7140     1.2140     4.3260 h1         1 10J       0.027033
     48 H16          1.7070    -0.5540     4.3580 h1         1 10J       0.027033
     49 H17          3.0870     0.3120     3.6700 h1         1 10J       0.027033
     50 H18          2.2730     7.1860    -2.1230 ha         1 10J       0.107500
     51 H19          3.2920     2.3530    -2.2770 ha         1 10J       0.118000
     52 H20          5.1210     4.0030    -2.2590 ha         1 10J       0.107500
     53 H21          4.6120     6.4120    -2.1830 ha         1 10J       0.104000
     54 H22         -1.1330     1.5850     0.9440 hn         1 10J       0.325800
@<TRIPOS>BOND
     1     1     2 1   
     2     1     6 1   
     3     1     8 1   
     4     1     9 1   
     5     2     5 1   
     6     2    11 1   
     7     2    34 1   
     8     3     4 1   
     9     3     5 1   
    10     3    29 1   
    11     4     6 1   
    12     4    21 2   
    13     5    23 2   
    14     6    54 1   
    15     7     9 1   
    16     7    10 1   
    17     7    11 1   
    18     8    12 2   
    19     8    14 1   
    20     9    35 1   
    21     9    36 1   
    22    10    17 1   
    23    10    25 2   
    24    11    37 1   
    25    11    38 1   
    26    12    13 1   
    27    12    39 1   
    28    13    15 2   
    29    13    18 1   
    30    14    15 1   
    31    15    40 1   
    32    16    20 1   
    33    16    22 ar  
    34    16    24 ar  
    35    17    26 ar  
    36    17    31 ar  
    37    18    22 ar  
    38    18    27 ar  
    39    19    20 3   
    40    21    41 1   
    41    22    42 1   
    42    24    28 ar  
    43    24    43 1   
    44    26    30 ar  
    45    26    44 1   
    46    27    28 ar  
    47    27    45 1   
    48    28    46 1   
    49    29    47 1   
    50    29    48 1   
    51    29    49 1   
    52    30    33 ar  
    53    30    50 1   
    54    31    32 ar  
    55    31    51 1   
    56    32    33 ar  
    57    32    52 1   
    58    33    53 1   
@<TRIPOS>SUBSTRUCTURE
     1 10J         1 TEMP              0 ****  ****    0 ROOT
