@<TRIPOS>MOLECULE
10J
   54    58     1     0     0
SMALL
bcc


@<TRIPOS>ATOM
      1 C1          -0.2570     0.0820    -0.1160 c3         1 10J       0.276500
      2 C2           1.2800    -0.0340     0.0930 c3         1 10J      -0.145700
      3 N3           0.9450     1.1030     2.3180 n          1 10J      -0.389300
      4 C4          -0.4110     1.4260     1.9850 c2         1 10J       0.647800
      5 C5           1.8150     0.5340     1.3890 c          1 10J       0.715500
      6 N6          -0.8100     1.2080     0.6200 nu         1 10J      -0.828200
      7 N7           0.8860     0.9990    -2.0740 n          1 10J      -0.442800
      8 C8          -0.9220    -1.2220     0.1980 cc         1 10J      -0.182400
      9 C9          -0.3660     0.3930    -1.6640 c3         1 10J       0.076000
     10 C10          0.8630     2.2330    -2.7410 c          1 10J       0.668700
     11 C11          1.9310     0.6790    -1.1160 c3         1 10J       0.088000
     12 C12         -1.2720    -1.6460     1.4670 cd         1 10J      -0.127000
     13 C13         -1.8880    -2.9420     1.4510 cd         1 10J      -0.068000
     14 S14         -1.3360    -2.3770    -0.9510 ss         1 10J       0.087200
     15 C15         -1.9700    -3.4320     0.1570 cc         1 10J      -0.170100
     16 C16         -2.1780    -4.0840     5.0170 ca         1 10J      -0.015000
     17 C17          2.1410     2.9740    -2.9240 ca         1 10J      -0.143600
     18 C18         -2.3560    -3.6250     2.6400 ca         1 10J      -0.017000
     19 N19         -1.0000    -3.7000     7.2860 n1         1 10J      -0.358800
     20 C20         -1.5290    -3.8720     6.2650 cg         1 10J       0.231800
     21 N21         -1.1730     1.9680     2.9040 n2         1 10J      -0.856100
     22 C22         -1.7220    -3.4180     3.8730 ca         1 10J      -0.081000
     23 O23          3.0310     0.4470     1.6440 o          1 10J      -0.616500
     24 C24         -3.2690    -4.9610     4.9380 ca         1 10J      -0.089000
     25 O25         -0.2050     2.6540    -3.2260 o          1 10J      -0.582100
     26 C26          2.1270     4.3630    -2.7500 ca         1 10J      -0.088500
     27 C27         -3.4470    -4.5050     2.5700 ca         1 10J      -0.099000
     28 C28         -3.8970    -5.1650     3.7110 ca         1 10J      -0.134000
     29 C29          1.4600     1.5650     3.5880 c3         1 10J       0.083300
     30 C30          3.2960     5.0980    -2.9430 ca         1 10J      -0.137500
     31 C31          3.3190     2.3280    -3.3110 ca         1 10J      -0.088500
     32 C32          4.4830     3.0700    -3.5110 ca         1 10J      -0.137500
     33 C33          4.4730     4.4520    -3.3230 ca         1 10J      -0.106000
     34 H1           1.5690    -1.1210     0.0820 hc         1 10J       0.106700
     35 H2          -1.2410     1.0560    -1.9060 h1         1 10J       0.076700
     36 H3          -0.4810    -0.5730    -2.2320 h1         1 10J       0.076700
     37 H4           2.6650    -0.0190    -1.6070 h1         1 10J       0.070700
     38 H5           2.4930     1.5980    -0.7880 h1         1 10J       0.070700
     39 H6          -1.1130    -1.0790     2.3890 ha         1 10J       0.166000
     40 H7          -2.3890    -4.4010    -0.1170 h4         1 10J       0.179000
     41 H8          -2.1090     2.1680     2.6270 hn         1 10J       0.401400
     42 H10         -0.8610    -2.7350     3.9420 ha         1 10J       0.150000
     43 H11         -3.6250    -5.4830     5.8390 ha         1 10J       0.147000
     44 H12          1.1880     4.8670    -2.4720 ha         1 10J       0.146500
     45 H13         -3.9520    -4.6690     1.6050 ha         1 10J       0.139000
     46 H14         -4.7550    -5.8510     3.6440 ha         1 10J       0.141000
     47 H15          2.5390     1.2720     3.6850 h1         1 10J       0.061367
     48 H16          0.8740     1.0970     4.4230 h1         1 10J       0.061367
     49 H17          1.3730     2.6820     3.6630 h1         1 10J       0.061367
     50 H18          3.2860     6.1880    -2.8000 ha         1 10J       0.139000
     51 H19          3.3300     1.2380    -3.4670 ha         1 10J       0.146500
     52 H20          5.4090     2.5620    -3.8180 ha         1 10J       0.139000
     53 H21          5.3950     5.0340    -3.4770 ha         1 10J       0.137000
     54 H22         -1.8010     1.2770     0.4890 hn         1 10J       0.410800
@<TRIPOS>BOND
     1     1     2 1   
     2     1     6 1   
     3     1     8 1   
     4     1     9 1   
     5     2     5 1   
     6     2    11 1   
     7     2    34 1   
     8     3     4 1   
     9     3     5 1   
    10     3    29 1   
    11     4     6 1   
    12     4    21 2   
    13     5    23 2   
    14     6    54 1   
    15     7     9 1   
    16     7    10 1   
    17     7    11 1   
    18     8    12 2   
    19     8    14 1   
    20     9    35 1   
    21     9    36 1   
    22    10    17 1   
    23    10    25 2   
    24    11    37 1   
    25    11    38 1   
    26    12    13 1   
    27    12    39 1   
    28    13    15 2   
    29    13    18 1   
    30    14    15 1   
    31    15    40 1   
    32    16    20 1   
    33    16    22 ar  
    34    16    24 ar  
    35    17    26 ar  
    36    17    31 ar  
    37    18    22 ar  
    38    18    27 ar  
    39    19    20 3   
    40    21    41 1   
    41    22    42 1   
    42    24    28 ar  
    43    24    43 1   
    44    26    30 ar  
    45    26    44 1   
    46    27    28 ar  
    47    27    45 1   
    48    28    46 1   
    49    29    47 1   
    50    29    48 1   
    51    29    49 1   
    52    30    33 ar  
    53    30    50 1   
    54    31    32 ar  
    55    31    51 1   
    56    32    33 ar  
    57    32    52 1   
    58    33    53 1   
@<TRIPOS>SUBSTRUCTURE
     1 10J         1 TEMP              0 ****  ****    0 ROOT
