@<TRIPOS>MOLECULE
10K
   40    43     1     0     0
SMALL
bcc


@<TRIPOS>ATOM
      1 O            0.1860    -1.2050     0.1160 o          1 10K      -0.576100
      2 S            1.6000     6.3240    -3.4080 ss         1 10K       0.033200
      3 C1           2.6740     7.5020    -3.8880 cc         1 10K      -0.166100
      4 N1           1.5030     0.5530     0.8310 ns         1 10K      -0.457100
      5 C2           3.9700     7.0340    -3.9210 cd         1 10K      -0.156000
      6 N2           1.7060     1.3050     3.1900 na         1 10K      -0.042600
      7 C3           4.0440     5.6630    -3.5310 cd         1 10K      -0.140000
      8 N3           1.0900     1.1360     4.3630 nc         1 10K      -0.518800
      9 C4           2.7950     5.1470    -3.2200 cc         1 10K      -0.077100
     10 C5           2.5080     3.8000    -2.7900 ca         1 10K       0.012000
     11 C6           1.2300     3.2490    -2.9800 ca         1 10K      -0.122500
     12 C7           0.9500     1.9510    -2.5650 ca         1 10K      -0.121500
     13 C8           1.9390     1.1750    -1.9500 ca         1 10K      -0.105300
     14 C9           3.2140     1.7190    -1.7610 ca         1 10K      -0.121500
     15 C10          3.4980     3.0170    -2.1750 ca         1 10K      -0.122500
     16 C11          1.6430    -0.2170    -1.5240 c3         1 10K      -0.109100
     17 C12          1.0360    -0.3340    -0.1330 c          1 10K       0.673100
     18 C13          1.0810     0.5430     2.1590 cc         1 10K       0.020300
     19 C14          0.1200     0.1930     4.1830 cd         1 10K       0.357600
     20 C15          0.0740    -0.2150     2.7920 cd         1 10K      -0.294300
     21 C16         -0.7390    -0.3210     5.2500 cx         1 10K      -0.156000
     22 C17         -1.1680    -1.7690     5.2170 cx         1 10K      -0.123900
     23 C18         -2.1680    -0.6910     4.9310 cx         1 10K      -0.123900
     24 HN1          2.1470     1.2580     0.5490 hn         1 10K       0.326500
     25 H2           4.8460     7.6210    -4.2060 ha         1 10K       0.156000
     26 H3           4.9790     5.1010    -3.4990 ha         1 10K       0.155000
     27 H6           0.4450     3.8480    -3.4680 ha         1 10K       0.140000
     28 H7          -0.0550     1.5310    -2.7250 ha         1 10K       0.139000
     29 H9           4.0050     1.1140    -1.2910 ha         1 10K       0.139000
     30 H10          4.5040     3.4350    -2.0200 ha         1 10K       0.140000
     31 H11          0.9170    -0.6940    -2.2370 hc         1 10K       0.088200
     32 H11A         2.5810    -0.8380    -1.5290 hc         1 10K       0.088200
     33 H15         -0.5820    -0.9500     2.3350 ha         1 10K       0.191000
     34 H16         -0.5340     0.1320     6.2420 hc         1 10K       0.095700
     35 H17         -0.8190    -2.4080     4.3860 hc         1 10K       0.074200
     36 H17A        -1.2230    -2.3210     6.1720 hc         1 10K       0.074200
     37 H18         -2.9480    -0.4620     5.6780 hc         1 10K       0.074200
     38 H18A        -2.5320    -0.5630     3.8960 hc         1 10K       0.074200
     39 HN2          2.2630     2.1150     3.0510 hn         1 10K       0.308700
     40 H1           2.3630     8.5150    -4.1420 h4         1 10K       0.174000
@<TRIPOS>BOND
     1     1    17 2   
     2     2     3 1   
     3     2     9 1   
     4     3     5 2   
     5     3    40 1   
     6     4    17 1   
     7     4    18 1   
     8     4    24 1   
     9     5     7 1   
    10     5    25 1   
    11     6     8 1   
    12     6    18 1   
    13     6    39 1   
    14     7     9 2   
    15     7    26 1   
    16     8    19 2   
    17     9    10 1   
    18    10    11 ar  
    19    10    15 ar  
    20    11    12 ar  
    21    11    27 1   
    22    12    13 ar  
    23    12    28 1   
    24    13    14 ar  
    25    13    16 1   
    26    14    15 ar  
    27    14    29 1   
    28    15    30 1   
    29    16    17 1   
    30    16    31 1   
    31    16    32 1   
    32    18    20 2   
    33    19    20 1   
    34    19    21 1   
    35    20    33 1   
    36    21    22 1   
    37    21    23 1   
    38    21    34 1   
    39    22    23 1   
    40    22    35 1   
    41    22    36 1   
    42    23    37 1   
    43    23    38 1   
@<TRIPOS>SUBSTRUCTURE
     1 10K         1 TEMP              0 ****  ****    0 ROOT
