@<TRIPOS>MOLECULE
molecule
   40    43     1     0     0
SMALL
bcc


@<TRIPOS>ATOM
      1 O            0.0000     0.0000     0.0000 o          1 10K      -0.561100
      2 S           -2.4360     1.4330    -6.4500 ss         1 10K      -0.149800
      3 C1          -3.3810     0.4430    -7.5530 cc         1 10K      -0.073100
      4 N1           1.8880     0.0000     1.1660 ns         1 10K      -0.463100
      5 C2          -3.1640    -0.8500    -7.2990 cd         1 10K      -0.154000
      6 N2           1.7370     0.0020     3.6120 na         1 10K      -0.072600
      7 C3          -2.2820    -1.1030    -6.2680 cd         1 10K      -0.150000
      8 N3           0.6920     0.0030     4.5440 nc         1 10K      -0.504800
      9 C4          -1.7760    -0.0030    -5.6780 cc         1 10K       0.019900
     10 C5          -0.8150    -0.0020    -4.5550 ca         1 10K       0.002000
     11 C6          -0.3580     1.2050    -4.0230 ca         1 10K      -0.115000
     12 C7           0.5380     1.1990    -2.9750 ca         1 10K      -0.104500
     13 C8           0.9860    -0.0010    -2.4500 ca         1 10K      -0.073300
     14 C9           0.5380    -1.2020    -2.9730 ca         1 10K      -0.104500
     15 C10         -0.3630    -1.2090    -4.0180 ca         1 10K      -0.115000
     16 C11          1.9650    -0.0010    -1.3060 c3         1 10K      -0.105100
     17 C12          1.2130     0.0000     0.0000 c          1 10K       0.661100
     18 C13          1.1910     0.0010     2.3740 cc         1 10K       0.052300
     19 C14         -0.4420     0.0020     3.8920 cd         1 10K       0.385600
     20 C15         -0.1620     0.0010     2.5230 cd         1 10K      -0.346300
     21 C16         -1.8170     0.0040     4.5110 cx         1 10K      -0.155000
     22 C17         -2.9960     0.3850     3.6140 cx         1 10K      -0.129400
     23 C18         -2.5090     1.3570     4.6910 cx         1 10K      -0.129400
     24 HN1          2.8880     0.0270     1.1650 hn         1 10K       0.319500
     25 H2          -3.6450    -1.6420    -7.8610 ha         1 10K       0.148000
     26 H3          -2.0170    -2.1070    -5.9590 ha         1 10K       0.149000
     27 H6          -0.7080     2.1450    -4.4330 ha         1 10K       0.136000
     28 H7           0.8930     2.1350    -2.5610 ha         1 10K       0.132000
     29 H9           0.8910    -2.1380    -2.5570 ha         1 10K       0.132000
     30 H10         -0.7130    -2.1490    -4.4270 ha         1 10K       0.136000
     31 H11          2.5880    -0.8860    -1.3640 hc         1 10K       0.068200
     32 H11A         2.5880     0.8830    -1.3650 hc         1 10K       0.068200
     33 H15         -0.8920     0.0010     1.7220 ha         1 10K       0.199000
     34 H16         -2.0470    -0.7280     5.2760 hc         1 10K       0.093700
     35 H17         -3.9290    -0.1210     3.8280 hc         1 10K       0.078450
     36 H17A        -2.7410     0.6510     2.5950 hc         1 10K       0.078450
     37 H18         -3.1460     1.4440     5.5630 hc         1 10K       0.078450
     38 H18A        -1.9570     2.2160     4.3310 hc         1 10K       0.078450
     39 HN2          2.7150     0.0020     3.8250 hn         1 10K       0.321700
     40 H1          -4.0410     0.8240    -8.3240 h4         1 10K       0.171000
@<TRIPOS>BOND
     1    17     1 2
     2     3     2 1
     3     9     2 1
     4     5     3 2
     5     3    40 1
     6     4    18 1
     7     4    17 1
     8     4    24 1
     9     5     7 1
    10     5    25 1
    11     6    18 1
    12     6     8 1
    13     7     9 2
    14     7    26 1
    15     8    19 2
    16     9    10 1
    17    15    10 ar
    18    10    11 ar
    19    11    12 ar
    20    11    27 1
    21    13    12 ar
    22    12    28 1
    23    14    13 ar
    24    13    16 1
    25    15    14 ar
    26    14    29 1
    27    15    30 1
    28    16    17 1
    29    16    31 1
    30    16    32 1
    31    18    20 2
    32    19    20 1
    33    19    21 1
    34    20    33 1
    35    21    23 1
    36    21    22 1
    37    21    34 1
    38    23    22 1
    39    22    35 1
    40    22    36 1
    41    23    37 1
    42    23    38 1
    43     6    39 1
@<TRIPOS>SUBSTRUCTURE
     1 10K         1 TEMP              0 ****  ****    0 ROOT
