@<TRIPOS>MOLECULE
10L
   17    18     1     0     0
SMALL
bcc


@<TRIPOS>ATOM
      1 N3          -0.0580    -0.1210     0.0950 nv         1 10L      -0.805200
      2 C3           1.3410    -0.0490     0.0190 ca         1 10L       0.124600
      3 C2           2.1280     0.0380     1.1920 ca         1 10L      -0.110200
      4 C4           2.0490    -0.1520    -1.1920 ca         1 10L      -0.168000
      5 C5           3.4500    -0.1530    -1.2330 ca         1 10L      -0.120000
      6 C6           4.2240    -0.0440    -0.0840 ca         1 10L      -0.104000
      7 C1           3.5650     0.0480     1.1370 ca         1 10L      -0.178900
      8 C1'          3.9630     0.1700     2.5400 cc         1 10L       0.353800
      9 N1'          2.8770     0.2130     3.3270 nd         1 10L      -0.519100
     10 N9           1.7710     0.2210     2.5550 na         1 10L      -0.003100
     11 H31N        -0.5030    -0.0110    -0.7920 hn         1 10L       0.383300
     12 H32N        -0.4460     0.4910     0.7830 hn         1 10L       0.383300
     13 H4           1.4940    -0.2400    -2.1380 ha         1 10L       0.133000
     14 H9           0.9500    -0.2000     2.9370 hn         1 10L       0.302700
     15 H5           3.9450    -0.2370    -2.2130 ha         1 10L       0.133000
     16 H6           5.3210    -0.0300    -0.1350 ha         1 10L       0.140000
     17 H1'          4.9800     0.2250     2.9300 h4         1 10L       0.054800
@<TRIPOS>BOND
     1     1     2 1   
     2     1    11 1   
     3     1    12 1   
     4     2     3 ar  
     5     2     4 ar  
     6     3     7 ar  
     7     3    10 1   
     8     4     5 ar  
     9     4    13 1   
    10     5     6 ar  
    11     5    15 1   
    12     6     7 ar  
    13     6    16 1   
    14     7     8 1   
    15     8     9 2   
    16     8    17 1   
    17     9    10 1   
    18    10    14 1   
@<TRIPOS>SUBSTRUCTURE
     1 10L         1 TEMP              0 ****  ****    0 ROOT
