@<TRIPOS>MOLECULE
molecule
   17    18     1     0     0
SMALL
bcc


@<TRIPOS>ATOM
      1 N3           0.0000     0.0000     0.0000 nv         1 10L      -0.988200
      2 C3           1.3970     0.0000     0.0000 ca         1 10L       0.132600
      3 C2           2.1010     0.0000     1.2090 ca         1 10L      -0.032200
      4 C4           2.0930    -0.0060    -1.1940 ca         1 10L      -0.103000
      5 C5           3.4820    -0.0070    -1.2010 ca         1 10L      -0.166000
      6 C6           4.1860    -0.0010    -0.0330 ca         1 10L      -0.063000
      7 C1           3.5060    -0.0010     1.1940 ca         1 10L      -0.251900
      8 C1'          3.9320    -0.0010     2.5450 cc         1 10L       0.376800
      9 N1'          2.8810     0.0000     3.3130 nd         1 10L      -0.507100
     10 N9           1.7210    -0.0000     2.5280 na         1 10L      -0.044100
     11 H31N        -0.5000     0.8670    -0.0170 hn         1 10L       0.425800
     12 H32N        -0.5000    -0.8670    -0.0140 hn         1 10L       0.425800
     13 H4           1.5510    -0.0110    -2.1310 ha         1 10L       0.138000
     14 H9           0.7800     0.0000     2.8700 hn         1 10L       0.335700
     15 H5           4.0120    -0.0120    -2.1460 ha         1 10L       0.131000
     16 H6           5.2690    -0.0020    -0.0530 ha         1 10L       0.130000
     17 H1'          4.9610    -0.0010     2.8830 h4         1 10L       0.058800
@<TRIPOS>BOND
     1     1     2 1
     2     2     3 ar
     3     2     4 ar
     4     3     7 ar
     5     3    10 1
     6     4     5 ar
     7     5     6 ar
     8     6     7 ar
     9     7     8 1
    10     8     9 2
    11     9    10 1
    12     1    11 1
    13     1    12 1
    14     4    13 1
    15    10    14 1
    16     5    15 1
    17     6    16 1
    18     8    17 1
@<TRIPOS>SUBSTRUCTURE
     1 10L         1 TEMP              0 ****  ****    0 ROOT
