@<TRIPOS>MOLECULE
10N
   51    54     1     0     0
SMALL
bcc


@<TRIPOS>ATOM
      1 N1           0.0070     0.6360    -0.1170 nb         1 10N      -0.705000
      2 C2           1.3260     0.4950    -0.0290 ca         1 10N       0.490200
      3 C3           2.0440     0.0830     1.1300 ca         1 10N      -0.259300
      4 C4           1.3490    -0.2410     2.3270 ca         1 10N       0.293600
      5 N5           2.0200    -0.7240     3.4340 nu         1 10N      -0.759600
      6 C6           1.4780    -0.5500     4.7620 c3         1 10N       0.254100
      7 C7           2.5300    -0.4140     5.8210 ca         1 10N      -0.207600
      8 C8           2.8430     0.8600     6.3150 ca         1 10N      -0.073000
      9 C9           3.7970     0.9960     7.3170 ca         1 10N      -0.240300
     10 C10          4.4230    -0.1700     7.8000 ca         1 10N       0.422200
     11 N11          4.1570    -1.4020     7.3500 nb         1 10N      -0.670000
     12 C12          3.2200    -1.5360     6.3590 ca         1 10N       0.641200
     13 N13          2.9530    -2.8510     5.8760 nh         1 10N      -0.799200
     14 S14          3.8100    -3.4740     4.6130 s6         1 10N       1.464900
     15 O15          4.4140    -2.4220     3.8960 o          1 10N      -0.645800
     16 O16          4.6400    -4.5250     5.0340 o          1 10N      -0.645800
     17 C17          2.5870    -4.1590     3.6470 c3         1 10N      -0.362300
     18 C18          2.1970    -3.6880     6.7650 c3         1 10N       0.216100
     19 C19         -0.0650    -0.1100     2.2790 ca         1 10N      -0.266100
     20 C20         -0.6760     0.3350     1.0360 ca         1 10N       0.471800
     21 N21         -2.0570     0.3900     1.2290 na         1 10N      -0.270100
     22 C22         -2.3400    -0.0280     2.5420 cc         1 10N      -0.018300
     23 C23         -1.1450    -0.3380     3.2010 cd         1 10N      -0.150200
     24 C24         -3.6910    -0.1010     3.0720 ca         1 10N      -0.038800
     25 C25         -4.6940     0.7780     2.6390 ca         1 10N      -0.117500
     26 C26         -5.9780     0.6910     3.1730 ca         1 10N      -0.126000
     27 C27         -6.2740    -0.2680     4.1420 ca         1 10N      -0.122000
     28 C28         -5.2790    -1.1430     4.5770 ca         1 10N      -0.126000
     29 C29         -3.9940    -1.0640     4.0470 ca         1 10N      -0.117500
     30 C30          3.4540     0.0240     1.0480 cg         1 10N       0.236800
     31 N31          4.6150    -0.0060     0.9530 n1         1 10N      -0.364800
     32 H1           1.8900     0.7320    -0.9520 h4         1 10N       0.033100
     33 H2           3.0220    -0.7540     3.3690 hn         1 10N       0.461800
     34 H3           0.8090     0.3620     4.7950 h1         1 10N       0.057700
     35 H4           0.8300    -1.4480     4.9930 h1         1 10N       0.057700
     36 H5           2.3320     1.7460     5.9070 ha         1 10N       0.148000
     37 H6           4.0640     1.9810     7.7230 ha         1 10N       0.154000
     38 H7           5.1920    -0.1140     8.5940 h4         1 10N       0.033100
     39 H8           2.9690    -4.3120     2.6040 h1         1 10N       0.120367
     40 H9           1.6690    -3.5300     3.5420 h1         1 10N       0.120367
     41 H10          2.2540    -5.1630     4.0080 h1         1 10N       0.120367
     42 H11          1.1940    -3.2270     6.9710 h1         1 10N       0.047033
     43 H12          2.7290    -3.8410     7.7430 h1         1 10N       0.047033
     44 H13          2.0430    -4.6890     6.2780 h1         1 10N       0.047033
     45 H14         -2.7260     0.6260     0.5430 hn         1 10N       0.314700
     46 H15         -1.0660    -0.6910     4.2250 ha         1 10N       0.155000
     47 H16         -4.4730     1.5510     1.8880 ha         1 10N       0.135000
     48 H17         -6.7600     1.3850     2.8300 ha         1 10N       0.136000
     49 H18         -7.2890    -0.3340     4.5610 ha         1 10N       0.136000
     50 H19         -5.5090    -1.9010     5.3410 ha         1 10N       0.136000
     51 H20         -3.2120    -1.7600     4.3860 ha         1 10N       0.135000
@<TRIPOS>BOND
     1     1     2 ar  
     2     1    20 ar  
     3     2     3 ar  
     4     2    32 1   
     5     3     4 ar  
     6     3    30 1   
     7     4     5 1   
     8     4    19 ar  
     9     5     6 1   
    10     5    33 1   
    11     6     7 1   
    12     6    34 1   
    13     6    35 1   
    14     7     8 ar  
    15     7    12 ar  
    16     8     9 ar  
    17     8    36 1   
    18     9    10 ar  
    19     9    37 1   
    20    10    11 ar  
    21    10    38 1   
    22    11    12 ar  
    23    12    13 1   
    24    13    14 1   
    25    13    18 1   
    26    14    15 2   
    27    14    16 2   
    28    14    17 1   
    29    17    39 1   
    30    17    40 1   
    31    17    41 1   
    32    18    42 1   
    33    18    43 1   
    34    18    44 1   
    35    19    20 ar  
    36    19    23 1   
    37    20    21 1   
    38    21    22 1   
    39    21    45 1   
    40    22    23 2   
    41    22    24 1   
    42    23    46 1   
    43    24    25 ar  
    44    24    29 ar  
    45    25    26 ar  
    46    25    47 1   
    47    26    27 ar  
    48    26    48 1   
    49    27    28 ar  
    50    27    49 1   
    51    28    29 ar  
    52    28    50 1   
    53    29    51 1   
    54    30    31 3   
@<TRIPOS>SUBSTRUCTURE
     1 10N         1 TEMP              0 ****  ****    0 ROOT
