@<TRIPOS>MOLECULE
molecule
   51    54     1     0     0
SMALL
bcc


@<TRIPOS>ATOM
      1 N1           0.0000     0.0000     0.0000 nb         1 10N      -0.724000
      2 C2           1.3140     0.0000     0.0000 ca         1 10N       0.484200
      3 C3           2.0440     0.0000     1.1940 ca         1 10N      -0.206300
      4 C4           1.3490    -0.0000     2.4170 ca         1 10N       0.217600
      5 N5           2.0240     0.0020     3.6230 nu         1 10N      -0.860600
      6 C6           2.2740     1.3740     4.0870 c3         1 10N       0.308100
      7 C7           2.8860     1.3350     5.4630 ca         1 10N      -0.213600
      8 C8           3.1450     0.1260     6.0820 ca         1 10N      -0.126000
      9 C9           3.7160     0.1390     7.3480 ca         1 10N      -0.274300
     10 C10          4.0050     1.3470     7.9480 ca         1 10N       0.455200
     11 N11          3.7470     2.4860     7.3340 nb         1 10N      -0.688000
     12 C12          3.2030     2.5170     6.1270 ca         1 10N       0.641200
     13 N13          2.9530     3.7390     5.5140 nh         1 10N      -0.788200
     14 S14          1.5510     4.5580     5.8430 s6         1 10N       1.285900
     15 O15          1.3280     5.3490     4.6840 o          1 10N      -0.625300
     16 O16          0.6340     3.5430     6.2250 o          1 10N      -0.625300
     17 C17          1.9640     5.6100     7.2620 c3         1 10N      -0.198300
     18 C18          3.9280     4.3030     4.5790 c3         1 10N       0.219100
     19 C19         -0.0550    -0.0000     2.3720 ca         1 10N      -0.244100
     20 C20         -0.7090    -0.0000     1.1260 ca         1 10N       0.494800
     21 N21         -2.0580    -0.0000     1.3740 na         1 10N      -0.262100
     22 C22         -2.2870     0.0000     2.7320 cc         1 10N      -0.009300
     23 C23         -1.1020     0.0010     3.3910 cd         1 10N      -0.153200
     24 C24         -3.6200     0.0010     3.3730 ca         1 10N      -0.050800
     25 C25         -4.7750     0.0010     2.5890 ca         1 10N      -0.132000
     26 C26         -6.0150     0.0020     3.1940 ca         1 10N      -0.125500
     27 C27         -6.1150     0.0030     4.5740 ca         1 10N      -0.091000
     28 C28         -4.9750     0.0040     5.3560 ca         1 10N      -0.125500
     29 C29         -3.7280    -0.0030     4.7650 ca         1 10N      -0.132000
     30 C30          3.4760     0.0000     1.1710 cg         1 10N       0.252800
     31 N31          4.6110    -0.0010     1.1330 n1         1 10N      -0.374800
     32 H1           1.6100     0.1460    -1.0320 h4         1 10N       0.043100
     33 H2           2.3280    -0.9520     3.5930 hn         1 10N       0.459800
     34 H3           3.1250     2.0000     3.8480 h1         1 10N       0.090700
     35 H4           1.2490     1.7210     4.1390 h1         1 10N       0.090700
     36 H5           2.7180    -0.7380     5.5870 ha         1 10N       0.150000
     37 H6           3.6940    -0.9430     7.3900 ha         1 10N       0.167000
     38 H7           4.3710     1.0830     8.9320 h4         1 10N       0.037100
     39 H8           2.9210     5.9710     6.9030 h1         1 10N       0.101033
     40 H9           1.0340     6.0560     7.5920 h1         1 10N       0.101033
     41 H10          2.2600     4.7560     7.8590 h1         1 10N       0.101033
     42 H11          3.5780     4.4130     3.5590 h1         1 10N       0.050033
     43 H12          4.0960     5.3560     4.7730 h1         1 10N       0.050033
     44 H13          4.8960     3.8430     4.7320 h1         1 10N       0.050033
     45 H14         -2.8030     0.4020     0.8400 hn         1 10N       0.303700
     46 H15         -0.7890     0.1010     4.4230 ha         1 10N       0.174000
     47 H16         -4.5690    -0.1580     1.5380 ha         1 10N       0.134000
     48 H17         -6.8720    -0.1280     2.5440 ha         1 10N       0.147000
     49 H18         -7.0170     0.1460     5.1570 ha         1 10N       0.138000
     50 H19         -4.5910    -0.2770     6.3290 ha         1 10N       0.147000
     51 H20         -2.8020     0.0800     5.3210 ha         1 10N       0.134000
@<TRIPOS>BOND
     1     9    10 ar  
     2     9     8 ar  
     3    10    11 ar  
     4     8     7 ar  
     5    11    12 ar  
     6    28    27 ar  
     7    28    29 ar  
     8     7    12 ar  
     9     7     6 1   
    10    12    13 1   
    11    27    26 ar  
    12    29    24 ar  
    13     6     5 1   
    14    18    13 1   
    15    13    14 1   
    16    26    25 ar  
    17    24    25 ar  
    18    24    22 1   
    19    23    22 2   
    20    23    19 1   
    21     5     4 1   
    22    22    21 1   
    23    16    14 2   
    24    14    15 2   
    25    14    17 1   
    26    19     4 ar  
    27    19    20 ar  
    28     4     3 ar  
    29    21    20 1   
    30    20     1 ar  
    31     3    30 1   
    32     3     2 ar  
    33    30    31 3   
    34     1     2 ar  
    35     2    32 1   
    36     5    33 1   
    37     6    34 1   
    38     6    35 1   
    39     8    36 1   
    40     9    37 1   
    41    10    38 1   
    42    17    39 1   
    43    17    40 1   
    44    17    41 1   
    45    18    42 1   
    46    18    43 1   
    47    18    44 1   
    48    21    45 1   
    49    23    46 1   
    50    25    47 1   
    51    26    48 1   
    52    27    49 1   
    53    28    50 1   
    54    29    51 1   
@<TRIPOS>SUBSTRUCTURE
     1 10N         1 TEMP              0 ****  ****    0 ROOT
