@<TRIPOS>MOLECULE
10N
   51    54     1     0     0
SMALL
bcc


@<TRIPOS>ATOM
      1 N1           0.0000     0.0000     0.0000 nb         1 10N      -0.603000
      2 C2           1.3140     0.0000     0.0000 ca         1 10N       0.448200
      3 C3           2.0440     0.0000     1.1940 ca         1 10N      -0.150300
      4 C4           1.3490    -0.0000     2.4170 ca         1 10N       0.119600
      5 N5           2.0240     0.0020     3.6230 nu         1 10N      -0.529600
      6 C6           2.2740     1.3740     4.0870 c3         1 10N       0.251100
      7 C7           2.8860     1.3350     5.4630 ca         1 10N      -0.220600
      8 C8           3.1450     0.1260     6.0820 ca         1 10N      -0.122000
      9 C9           3.7160     0.1390     7.3480 ca         1 10N      -0.246300
     10 C10          4.0050     1.3470     7.9480 ca         1 10N       0.439200
     11 N11          3.7470     2.4860     7.3340 nb         1 10N      -0.567000
     12 C12          3.2030     2.5170     6.1270 ca         1 10N       0.534200
     13 N13          2.9530     3.7390     5.5140 nh         1 10N      -0.498200
     14 S14          1.5510     4.5580     5.8430 s6         1 10N       0.921900
     15 O15          1.3280     5.3490     4.6840 o          1 10N      -0.586800
     16 O16          0.6340     3.5430     6.2250 o          1 10N      -0.586800
     17 C17          1.9640     5.6100     7.2620 c3         1 10N       0.043700
     18 C18          3.9280     4.3030     4.5790 c3         1 10N       0.262100
     19 C19         -0.0550    -0.0000     2.3720 ca         1 10N      -0.243100
     20 C20         -0.7090    -0.0000     1.1260 ca         1 10N       0.271800
     21 N21         -2.0580    -0.0000     1.3740 na         1 10N       0.246900
     22 C22         -2.2870     0.0000     2.7320 cc         1 10N      -0.175300
     23 C23         -1.1020     0.0010     3.3910 cd         1 10N      -0.118200
     24 C24         -3.6200     0.0010     3.3730 ca         1 10N      -0.038800
     25 C25         -4.7750     0.0010     2.5890 ca         1 10N      -0.116500
     26 C26         -6.0150     0.0020     3.1940 ca         1 10N      -0.098000
     27 C27         -6.1150     0.0030     4.5740 ca         1 10N      -0.059000
     28 C28         -4.9750     0.0040     5.3560 ca         1 10N      -0.098000
     29 C29         -3.7280    -0.0030     4.7650 ca         1 10N      -0.116500
     30 C30          3.4760     0.0000     1.1710 cg         1 10N       0.247800
     31 N31          4.6110    -0.0010     1.1330 n1         1 10N      -0.395800
     32 H1           1.6100     0.1460    -1.0320 h4         1 10N      -0.003900
     33 H2           2.3280    -0.9520     3.5930 hn         1 10N       0.329800
     34 H3           3.1250     2.0000     3.8480 h1         1 10N       0.063200
     35 H4           1.2490     1.7210     4.1390 h1         1 10N       0.063200
     36 H5           2.7180    -0.7380     5.5870 ha         1 10N       0.124000
     37 H6           3.6940    -0.9430     7.3900 ha         1 10N       0.144000
     38 H7           4.3710     1.0830     8.9320 h4         1 10N      -0.011900
     39 H8           2.9210     5.9710     6.9030 h1         1 10N       0.071700
     40 H9           1.0340     6.0560     7.5920 h1         1 10N       0.071700
     41 H10          2.2600     4.7560     7.8590 h1         1 10N       0.071700
     42 H11          3.5780     4.4130     3.5590 h1         1 10N       0.007367
     43 H12          4.0960     5.3560     4.7730 h1         1 10N       0.007367
     44 H13          4.8960     3.8430     4.7320 h1         1 10N       0.007367
     45 H14         -2.8030     0.4020     0.8400 hn         1 10N       0.128700
     46 H15         -0.7890     0.1010     4.4230 ha         1 10N       0.149000
     47 H16         -4.5690    -0.1580     1.5380 ha         1 10N       0.109500
     48 H17         -6.8720    -0.1280     2.5440 ha         1 10N       0.118000
     49 H18         -7.0170     0.1460     5.1570 ha         1 10N       0.106000
     50 H19         -4.5910    -0.2770     6.3290 ha         1 10N       0.118000
     51 H20         -2.8020     0.0800     5.3210 ha         1 10N       0.109500
@<TRIPOS>BOND
     1     1     2 ar  
     2     1    20 ar  
     3     2     3 ar  
     4     2    32 1   
     5     3     4 ar  
     6     3    30 1   
     7     4     5 1   
     8     4    19 ar  
     9     5     6 1   
    10     5    33 1   
    11     6     7 1   
    12     6    34 1   
    13     6    35 1   
    14     7     8 ar  
    15     7    12 ar  
    16     8     9 ar  
    17     8    36 1   
    18     9    10 ar  
    19     9    37 1   
    20    10    11 ar  
    21    10    38 1   
    22    11    12 ar  
    23    12    13 1   
    24    13    14 1   
    25    13    18 1   
    26    14    15 2   
    27    14    16 2   
    28    14    17 1   
    29    17    39 1   
    30    17    40 1   
    31    17    41 1   
    32    18    42 1   
    33    18    43 1   
    34    18    44 1   
    35    19    20 ar  
    36    19    23 1   
    37    20    21 1   
    38    21    22 1   
    39    21    45 1   
    40    22    23 2   
    41    22    24 1   
    42    23    46 1   
    43    24    25 ar  
    44    24    29 ar  
    45    25    26 ar  
    46    25    47 1   
    47    26    27 ar  
    48    26    48 1   
    49    27    28 ar  
    50    27    49 1   
    51    28    29 ar  
    52    28    50 1   
    53    29    51 1   
    54    30    31 3   
@<TRIPOS>SUBSTRUCTURE
     1 10N         1 TEMP              0 ****  ****    0 ROOT
