@<TRIPOS>MOLECULE
molecule
   55    59     1     0     0
SMALL
bcc


@<TRIPOS>ATOM
      1 C1           0.0000     0.0000     0.0000 c3         1 10O       0.312500
      2 C2           1.5440     0.0000     0.0000 c3         1 10O      -0.166700
      3 N1           1.3680     0.3000     2.4780 n          1 10O      -0.376300
      4 C3           0.0180     0.5930     2.3670 c2         1 10O       0.701800
      5 C4           2.0910     0.0000     1.3910 c          1 10O       0.713500
      6 N2          -0.4750     0.8490     1.1010 nu         1 10O      -0.949200
      7 C5          -0.5710    -1.3920     0.0710 cc         1 10O      -0.052400
      8 N3           0.7340     1.7320    -1.4970 nh         1 10O      -0.687300
      9 C6          -0.3270     0.7160    -1.3350 c3         1 10O       0.156800
     10 C7           1.9120     1.3090    -0.7200 c3         1 10O       0.178800
     11 C8          -1.7340    -1.7140     0.6320 cd         1 10O      -0.117000
     12 C9          -2.0580    -3.0680     0.5780 cd         1 10O      -0.068000
     13 S1           0.1960    -2.8330    -0.5830 ss         1 10O      -0.122800
     14 C10         -1.1400    -3.8360    -0.0360 cc         1 10O      -0.058100
     15 C11          1.0570     1.9040    -2.8370 ca         1 10O       0.638200
     16 N4          -5.2820    -7.9990     1.4650 n1         1 10O      -0.359800
     17 N5          -0.7540     0.6250     3.4140 n2         1 10O      -0.892100
     18 C12         -3.3120    -3.6170     1.1500 ca         1 10O      -0.017000
     19 C13         -5.0410    -6.8900     1.5210 cg         1 10O       0.237800
     20 O1           3.2590    -0.2900     1.5450 o          1 10O      -0.620500
     21 N6           0.4330     1.1850    -3.7610 nb         1 10O      -0.823000
     22 C14         -3.5790    -4.9790     1.0650 ca         1 10O      -0.085000
     23 C15          2.0090     0.3200     3.7940 c3         1 10O       0.107300
     24 C16         -4.7590    -5.4880     1.6060 ca         1 10O      -0.015000
     25 C17         -4.2220    -2.7690     1.7820 ca         1 10O      -0.098000
     26 C18          2.0260     2.8330    -3.1980 ca         1 10O      -0.298300
     27 C19         -5.3890    -3.2770     2.3160 ca         1 10O      -0.128000
     28 C20          0.7110     1.3200    -5.0480 ca         1 10O       0.682600
     29 C21         -5.6650    -4.6280     2.2290 ca         1 10O      -0.091000
     30 C22          2.3400     2.9970    -4.5380 ca         1 10O      -0.044000
     31 C23          1.6730     2.2250    -5.4740 ca         1 10O      -0.289300
     32 O2           0.0500     0.5630    -5.9590 os         1 10O      -0.439100
     33 C24         -0.9270    -0.3510    -5.4570 c3         1 10O       0.136700
     34 H1           1.9200    -0.8520    -0.5530 hc         1 10O       0.101700
     35 H2          -1.2970     1.1930    -1.2760 h1         1 10O       0.081200
     36 H3          -0.2970     0.0090    -2.1550 h1         1 10O       0.081200
     37 H4           2.7490     1.1390    -1.3860 h1         1 10O       0.069700
     38 H5           2.1630     2.0710     0.0090 h1         1 10O       0.069700
     39 H6          -2.3800    -0.9790     1.0960 ha         1 10O       0.153000
     40 H7          -1.2150    -4.9080    -0.1760 h4         1 10O       0.178000
     41 H8          -1.7270     0.8390     3.3120 hn         1 10O       0.411400
     42 H10         -2.9220    -5.6250     0.4940 ha         1 10O       0.143000
     43 H11          3.0230     0.6880     3.6960 h1         1 10O       0.058700
     44 H12          1.4510     0.9700     4.4570 h1         1 10O       0.058700
     45 H13          2.0270    -0.6830     4.2020 h1         1 10O       0.058700
     46 H14         -4.0120    -1.7080     1.8530 ha         1 10O       0.137000
     47 H15          2.5300     3.4210    -2.4410 ha         1 10O       0.148000
     48 H16         -6.0940    -2.6140     2.8030 ha         1 10O       0.140000
     49 H17         -6.5820    -5.0210     2.6500 ha         1 10O       0.143000
     50 H18          3.0940     3.7120    -4.8460 ha         1 10O       0.146000
     51 H19          1.8960     2.3300    -6.5290 ha         1 10O       0.153000
     52 H20         -1.6440     0.1850    -4.8470 h1         1 10O       0.045700
     53 H21         -0.4380    -1.1090    -4.8570 h1         1 10O       0.045700
     54 H22         -1.4390    -0.8230    -6.2860 h1         1 10O       0.045700
     55 H23         -1.1330     1.5870     0.9410 hn         1 10O       0.464800
@<TRIPOS>BOND
     1    33    32 1
     2    32    28 1
     3    14    13 1
     4    14    12 2
     5    13     7 1
     6    25    27 ar
     7    25    18 ar
     8    28    21 ar
     9    28    31 ar
    10    27    29 ar
    11    21    15 ar
    12    12    18 1
    13    12    11 1
    14    31    30 ar
    15    18    22 ar
    16     9     8 1
    17     9     1 1
    18     7    11 2
    19     7     1 1
    20    29    24 ar
    21    15     8 1
    22    15    26 ar
    23    30    26 ar
    24     8    10 1
    25     1     2 1
    26     1     6 1
    27    22    24 ar
    28    24    19 1
    29     2    10 1
    30     2     5 1
    31     6     4 1
    32    19    16 3
    33     5    20 2
    34     5     3 1
    35     4     3 1
    36     4    17 2
    37     3    23 1
    38     2    34 1
    39     9    35 1
    40     9    36 1
    41    10    37 1
    42    10    38 1
    43    11    39 1
    44    14    40 1
    45    17    41 1
    46    22    42 1
    47    23    43 1
    48    23    44 1
    49    23    45 1
    50    25    46 1
    51    26    47 1
    52    27    48 1
    53    29    49 1
    54    30    50 1
    55    31    51 1
    56    33    52 1
    57    33    53 1
    58    33    54 1
    59     6    55 1
@<TRIPOS>SUBSTRUCTURE
     1 10O         1 TEMP              0 ****  ****    0 ROOT
