@<TRIPOS>MOLECULE
10O
   55    59     1     0     0
SMALL
bcc


@<TRIPOS>ATOM
      1 C1          -0.3150     0.2150     0.4470 c3         1 10O       0.313500
      2 C2           1.2300     0.0640     0.3070 c3         1 10O      -0.158700
      3 N1           1.4810     0.9130     2.6410 n          1 10O      -0.391300
      4 C3           0.2340     1.6030     2.4820 c2         1 10O       0.667800
      5 C4           2.0010     0.1450     1.6050 c          1 10O       0.717500
      6 N2          -0.7180     0.9890     1.6090 nu         1 10O      -0.857200
      7 C5          -0.9580    -1.1380     0.4710 cc         1 10O      -0.144400
      8 N3           0.4770     1.7610    -1.2600 nh         1 10O      -0.737300
      9 C6          -0.6860     0.9640    -0.8970 c3         1 10O       0.166800
     10 C7           1.6760     1.1840    -0.6570 c3         1 10O       0.185800
     11 C8          -1.1900    -1.8870     1.6070 cd         1 10O      -0.098000
     12 C9          -1.7940    -3.1540     1.3040 cd         1 10O      -0.076000
     13 S1          -1.4750    -1.9660    -0.9060 ss         1 10O       0.050200
     14 C10         -1.9890    -3.2960    -0.0600 cc         1 10O      -0.161100
     15 C11          0.5930     2.2480    -2.5850 ca         1 10O       0.660200
     16 N4          -3.5410    -3.9230     6.9390 n1         1 10O      -0.361800
     17 N5           0.0140     2.6780     3.1970 n2         1 10O      -0.855100
     18 C12         -2.1440    -4.1370     2.3100 ca         1 10O      -0.013000
     19 C13         -3.2310    -4.2650     5.8710 cg         1 10O       0.232800
     20 O1           3.0830    -0.4550     1.7380 o          1 10O      -0.613500
     21 N6          -0.5070     2.2010    -3.4050 nb         1 10O      -0.784000
     22 C14         -2.5140    -3.7300     3.5990 ca         1 10O      -0.082000
     23 C15          2.2270     1.1070     3.8610 c3         1 10O       0.089300
     24 C16         -2.8540    -4.6850     4.5660 ca         1 10O      -0.017000
     25 C17         -2.1190    -5.5070     2.0040 ca         1 10O      -0.099000
     26 C18          1.8140     2.8550    -2.9970 ca         1 10O      -0.316300
     27 C19         -2.4570    -6.4520     2.9700 ca         1 10O      -0.134000
     28 C20         -0.3890     2.7820    -4.6210 ca         1 10O       0.658600
     29 C21         -2.8260    -6.0510     4.2520 ca         1 10O      -0.091000
     30 C22          1.8880     3.4320    -4.2640 ca         1 10O      -0.041000
     31 C23          0.7870     3.4110    -5.1080 ca         1 10O      -0.291300
     32 O2          -1.4460     2.7910    -5.5090 os         1 10O      -0.447100
     33 C24         -2.6760     2.2030    -5.0910 c3         1 10O       0.126700
     34 H1           1.4580    -0.9380    -0.1490 hc         1 10O       0.109700
     35 H2          -1.5670     1.6490    -0.7760 h1         1 10O       0.067200
     36 H3          -0.9480     0.2050    -1.6890 h1         1 10O       0.067200
     37 H4           2.2090     2.0070    -0.1040 h1         1 10O       0.067700
     38 H5           2.3850     0.7630    -1.4240 h1         1 10O       0.067700
     39 H6          -0.9430    -1.5780     2.6270 ha         1 10O       0.170000
     40 H7          -2.4360    -4.1660    -0.5410 h4         1 10O       0.177000
     41 H8          -0.8750     3.1090     3.0700 hn         1 10O       0.400400
     42 H10         -2.5420    -2.6590     3.8510 ha         1 10O       0.149000
     43 H11          1.5490     0.9700     4.7450 h1         1 10O       0.059700
     44 H12          2.6610     2.1420     3.8910 h1         1 10O       0.059700
     45 H13          3.0580     0.3530     3.9080 h1         1 10O       0.059700
     46 H14         -1.8240    -5.8330     0.9950 ha         1 10O       0.139000
     47 H15          2.6810     2.8900    -2.3250 ha         1 10O       0.149000
     48 H16         -2.4320    -7.5240     2.7200 ha         1 10O       0.141000
     49 H17         -3.0920    -6.7990     5.0140 ha         1 10O       0.146000
     50 H18          2.8250     3.9080    -4.5920 ha         1 10O       0.143000
     51 H19          0.7970     3.8530    -6.1110 ha         1 10O       0.161000
     52 H20         -3.0790     2.7270    -4.1920 h1         1 10O       0.048700
     53 H21         -2.5430     1.1140    -4.8840 h1         1 10O       0.048700
     54 H22         -3.3430     2.3610    -5.9770 h1         1 10O       0.048700
     55 H23         -1.5340     1.5410     1.4400 hn         1 10O       0.420800
@<TRIPOS>BOND
     1     1     2 1   
     2     1     6 1   
     3     1     7 1   
     4     1     9 1   
     5     2     5 1   
     6     2    10 1   
     7     2    34 1   
     8     3     4 1   
     9     3     5 1   
    10     3    23 1   
    11     4     6 1   
    12     4    17 2   
    13     5    20 2   
    14     6    55 1   
    15     7    11 2   
    16     7    13 1   
    17     8     9 1   
    18     8    10 1   
    19     8    15 1   
    20     9    35 1   
    21     9    36 1   
    22    10    37 1   
    23    10    38 1   
    24    11    12 1   
    25    11    39 1   
    26    12    14 2   
    27    12    18 1   
    28    13    14 1   
    29    14    40 1   
    30    15    21 ar  
    31    15    26 ar  
    32    16    19 3   
    33    17    41 1   
    34    18    22 ar  
    35    18    25 ar  
    36    19    24 1   
    37    21    28 ar  
    38    22    24 ar  
    39    22    42 1   
    40    23    43 1   
    41    23    44 1   
    42    23    45 1   
    43    24    29 ar  
    44    25    27 ar  
    45    25    46 1   
    46    26    30 ar  
    47    26    47 1   
    48    27    29 ar  
    49    27    48 1   
    50    28    31 ar  
    51    28    32 1   
    52    29    49 1   
    53    30    31 ar  
    54    30    50 1   
    55    31    51 1   
    56    32    33 1   
    57    33    52 1   
    58    33    53 1   
    59    33    54 1   
@<TRIPOS>SUBSTRUCTURE
     1 10O         1 TEMP              0 ****  ****    0 ROOT
