@<TRIPOS>MOLECULE
10O
   55    59     1     0     0
SMALL
bcc


@<TRIPOS>ATOM
      1 C1           0.0000     0.0000     0.0000 c3         1 10O       0.221500
      2 C2           1.5440     0.0000     0.0000 c3         1 10O      -0.145700
      3 N1           1.3680     0.3000     2.4780 n          1 10O      -0.049300
      4 C3           0.0180     0.5930     2.3670 c2         1 10O       0.401800
      5 C4           2.0910     0.0000     1.3910 c          1 10O       0.630500
      6 N2          -0.4750     0.8490     1.1010 nu         1 10O      -0.508200
      7 C5          -0.5710    -1.3920     0.0710 cc         1 10O      -0.015400
      8 N3           0.7340     1.7320    -1.4970 nh         1 10O      -0.478300
      9 C6          -0.3270     0.7160    -1.3350 c3         1 10O       0.124800
     10 C7           1.9120     1.3090    -0.7200 c3         1 10O       0.163800
     11 C8          -1.7340    -1.7140     0.6320 cd         1 10O      -0.094000
     12 C9          -2.0580    -3.0680     0.5780 cd         1 10O      -0.061000
     13 S1           0.1960    -2.8330    -0.5830 ss         1 10O      -0.249800
     14 C10         -1.1400    -3.8360    -0.0360 cc         1 10O       0.016900
     15 C11          1.0570     1.9040    -2.8370 ca         1 10O       0.521200
     16 N4          -5.2580    -8.0040     1.4720 n1         1 10O      -0.378800
     17 N5          -0.7540     0.6250     3.4140 n2         1 10O      -0.766100
     18 C12         -3.3120    -3.6170     1.1500 ca         1 10O      -0.016000
     19 C13         -5.0410    -6.8900     1.5210 cg         1 10O       0.229800
     20 O1           3.2590    -0.2900     1.5450 o          1 10O      -0.662500
     21 N6           0.4330     1.1850    -3.7610 nb         1 10O      -0.703000
     22 C14         -3.5790    -4.9790     1.0650 ca         1 10O      -0.072000
     23 C15          2.0090     0.3200     3.7940 c3         1 10O       0.060300
     24 C16         -4.7590    -5.4880     1.6060 ca         1 10O       0.031000
     25 C17         -4.2220    -2.7690     1.7820 ca         1 10O      -0.075000
     26 C18          2.0260     2.8330    -3.1980 ca         1 10O      -0.280300
     27 C19         -5.3890    -3.2770     2.3160 ca         1 10O      -0.096000
     28 C20          0.7110     1.3200    -5.0480 ca         1 10O       0.649600
     29 C21         -5.6650    -4.6280     2.2290 ca         1 10O      -0.071000
     30 C22          2.3400     2.9970    -4.5380 ca         1 10O      -0.007000
     31 C23          1.6730     2.2250    -5.4740 ca         1 10O      -0.273300
     32 O2           0.0500     0.5630    -5.9590 os         1 10O      -0.428100
     33 C24         -0.9270    -0.3510    -5.4570 c3         1 10O       0.253700
     34 H1           1.9200    -0.8520    -0.5530 hc         1 10O       0.082700
     35 H2          -0.2970     0.0090    -2.1550 h1         1 10O       0.053700
     36 H3          -1.2970     1.1930    -1.2760 h1         1 10O       0.053700
     37 H4           2.1630     2.0710     0.0090 h1         1 10O       0.034200
     38 H5           2.7490     1.1390    -1.3860 h1         1 10O       0.034200
     39 H6          -2.3800    -0.9790     1.0960 ha         1 10O       0.140000
     40 H7          -1.2150    -4.9080    -0.1760 h4         1 10O       0.158000
     41 H8          -0.3760     0.4360     4.3210 hn         1 10O       0.338400
     42 H10         -2.9210    -5.6250     0.4960 ha         1 10O       0.118000
     43 H11          3.0850     0.3410     3.6710 h1         1 10O       0.026367
     44 H12          1.6900     1.2020     4.3370 h1         1 10O       0.026367
     45 H13          1.7260    -0.5670     4.3470 h1         1 10O       0.026367
     46 H14         -4.0120    -1.7080     1.8530 ha         1 10O       0.118000
     47 H15          2.5300     3.4210    -2.4410 ha         1 10O       0.127000
     48 H16         -6.0940    -2.6140     2.8030 ha         1 10O       0.111000
     49 H17         -6.5820    -5.0210     2.6500 ha         1 10O       0.114000
     50 H18          3.0940     3.7120    -4.8460 ha         1 10O       0.109000
     51 H19          1.8960     2.3300    -6.5290 ha         1 10O       0.128000
     52 H20         -1.4390    -0.8240    -6.2860 h1         1 10O       0.000367
     53 H21         -0.4380    -1.1080    -4.8560 h1         1 10O       0.000367
     54 H22         -1.6440     0.1850    -4.8480 h1         1 10O       0.000367
     55 H23         -1.1330     1.5860     0.9410 hn         1 10O       0.325800
@<TRIPOS>BOND
     1     1     2 1   
     2     1     6 1   
     3     1     7 1   
     4     1     9 1   
     5     2     5 1   
     6     2    10 1   
     7     2    34 1   
     8     3     4 1   
     9     3     5 1   
    10     3    23 1   
    11     4     6 1   
    12     4    17 2   
    13     5    20 2   
    14     6    55 1   
    15     7    11 2   
    16     7    13 1   
    17     8     9 1   
    18     8    10 1   
    19     8    15 1   
    20     9    35 1   
    21     9    36 1   
    22    10    37 1   
    23    10    38 1   
    24    11    12 1   
    25    11    39 1   
    26    12    14 2   
    27    12    18 1   
    28    13    14 1   
    29    14    40 1   
    30    15    21 ar  
    31    15    26 ar  
    32    16    19 3   
    33    17    41 1   
    34    18    22 ar  
    35    18    25 ar  
    36    19    24 1   
    37    21    28 ar  
    38    22    24 ar  
    39    22    42 1   
    40    23    43 1   
    41    23    44 1   
    42    23    45 1   
    43    24    29 ar  
    44    25    27 ar  
    45    25    46 1   
    46    26    30 ar  
    47    26    47 1   
    48    27    29 ar  
    49    27    48 1   
    50    28    31 ar  
    51    28    32 1   
    52    29    49 1   
    53    30    31 ar  
    54    30    50 1   
    55    31    51 1   
    56    32    33 1   
    57    33    52 1   
    58    33    53 1   
    59    33    54 1   
@<TRIPOS>SUBSTRUCTURE
     1 10O         1 TEMP              0 ****  ****    0 ROOT
