@<TRIPOS>MOLECULE
10Q
   52    56     1     0     0
SMALL
bcc


@<TRIPOS>ATOM
      1 C1           0.0750    -0.0380     0.0130 c3         1 10Q       0.283500
      2 C2           1.6270    -0.0650     0.0420 c3         1 10Q      -0.145700
      3 N1           1.4660     0.6140     2.4620 n          1 10Q      -0.390300
      4 C3           0.1030     1.0210     2.2890 c2         1 10Q       0.650800
      5 C4           2.2550     0.1920     1.3910 c          1 10Q       0.717500
      6 N2          -0.4600     0.9200     0.9680 nu         1 10Q      -0.832200
      7 C5          -0.4770    -1.4190     0.1760 cc         1 10Q      -0.188400
      8 N3           0.9680     1.2050    -1.9170 nh         1 10Q      -0.733300
      9 C6          -0.2160     0.4990    -1.4480 c3         1 10Q       0.187800
     10 C7           2.0710     1.0080    -0.9760 c3         1 10Q       0.201800
     11 C8          -0.7390    -2.0270     1.3910 cd         1 10Q      -0.125000
     12 C9          -1.2400    -3.3600     1.2290 cd         1 10Q      -0.069000
     13 S1          -0.8420    -2.4540    -1.0970 ss         1 10Q       0.103200
     14 C10         -1.3300    -3.6920    -0.1150 cc         1 10Q      -0.171100
     15 C11          0.7950     2.4630    -2.5320 ca         1 10Q       0.680200
     16 N4          -3.3010    -3.5310     6.8090 n1         1 10Q      -0.359800
     17 N5          -0.5340     1.5320     3.3140 n2         1 10Q      -0.856100
     18 C12         -1.5930    -4.2290     2.3340 ca         1 10Q      -0.015000
     19 C13         -0.2200     2.6380    -3.5330 ca         1 10Q      -0.182300
     20 C14         -2.9010    -3.9820     5.8140 cg         1 10Q       0.231800
     21 O1           3.4720    -0.0120     1.5560 o          1 10Q      -0.610500
     22 C15         -0.3210     3.8740    -4.1940 ca         1 10Q      -0.028000
     23 C16         -2.0700    -3.6890     3.5370 ca         1 10Q      -0.082000
     24 C17          2.0790     0.8290     3.7540 c3         1 10Q       0.084300
     25 C18         -2.4140    -4.5350     4.5980 ca         1 10Q      -0.015000
     26 N6           1.6710     3.4850    -2.2460 nb         1 10Q      -0.716000
     27 C19         -1.4650    -5.6210     2.2110 ca         1 10Q      -0.098000
     28 C20          1.5480     4.6390    -2.9060 ca         1 10Q       0.458200
     29 C21         -1.8070    -6.4580     3.2700 ca         1 10Q      -0.133000
     30 C22          0.5650     4.8960    -3.8830 ca         1 10Q      -0.290300
     31 C23         -2.2820    -5.9250     4.4660 ca         1 10Q      -0.090000
     32 C24         -1.0990     1.5970    -3.9200 cg         1 10Q       0.248800
     33 N7          -1.8250     0.7610    -4.2810 n1         1 10Q      -0.378800
     34 H1           1.9820    -1.0770    -0.2950 hc         1 10Q       0.108700
     35 H2          -0.3750    -0.3760    -2.1410 h1         1 10Q       0.071700
     36 H3          -1.1370     1.1430    -1.4680 h1         1 10Q       0.071700
     37 H4           2.3620     1.9470    -0.4290 h1         1 10Q       0.081700
     38 H5           2.9610     0.6490    -1.5610 h1         1 10Q       0.081700
     39 H6          -0.5720    -1.5740     2.3730 ha         1 10Q       0.164000
     40 H7          -1.6900    -4.6470    -0.4970 h4         1 10Q       0.180000
     41 H8          -1.4830     1.7900     3.1500 hn         1 10Q       0.401400
     42 H10         -1.1000     4.0180    -4.9590 ha         1 10Q       0.151000
     43 H11         -2.1790    -2.5990     3.6470 ha         1 10Q       0.147000
     44 H12          3.1340     0.4460     3.7360 h1         1 10Q       0.061367
     45 H13          1.5000     0.2780     4.5420 h1         1 10Q       0.061367
     46 H14          2.0880     1.9230     4.0060 h1         1 10Q       0.061367
     47 H15         -1.0850    -6.0510     1.2710 ha         1 10Q       0.140000
     48 H16          2.2850     5.4160    -2.6280 h4         1 10Q       0.030100
     49 H17         -1.7000    -7.5480     3.1630 ha         1 10Q       0.142000
     50 H18          0.5130     5.8720    -4.3800 ha         1 10Q       0.154000
     51 H19         -2.5520    -6.5870     5.3030 ha         1 10Q       0.147000
     52 H20         -1.4610     0.8970     0.9800 hn         1 10Q       0.408800
@<TRIPOS>BOND
     1     1     2 1   
     2     1     6 1   
     3     1     7 1   
     4     1     9 1   
     5     2     5 1   
     6     2    10 1   
     7     2    34 1   
     8     3     4 1   
     9     3     5 1   
    10     3    24 1   
    11     4     6 1   
    12     4    17 2   
    13     5    21 2   
    14     6    52 1   
    15     7    11 2   
    16     7    13 1   
    17     8     9 1   
    18     8    10 1   
    19     8    15 1   
    20     9    35 1   
    21     9    36 1   
    22    10    37 1   
    23    10    38 1   
    24    11    12 1   
    25    11    39 1   
    26    12    14 2   
    27    12    18 1   
    28    13    14 1   
    29    14    40 1   
    30    15    19 ar  
    31    15    26 ar  
    32    16    20 3   
    33    17    41 1   
    34    18    23 ar  
    35    18    27 ar  
    36    19    22 ar  
    37    19    32 1   
    38    20    25 1   
    39    22    30 ar  
    40    22    42 1   
    41    23    25 ar  
    42    23    43 1   
    43    24    44 1   
    44    24    45 1   
    45    24    46 1   
    46    25    31 ar  
    47    26    28 ar  
    48    27    29 ar  
    49    27    47 1   
    50    28    30 ar  
    51    28    48 1   
    52    29    31 ar  
    53    29    49 1   
    54    30    50 1   
    55    31    51 1   
    56    32    33 3   
@<TRIPOS>SUBSTRUCTURE
     1 10Q         1 TEMP              0 ****  ****    0 ROOT
