@<TRIPOS>MOLECULE
molecule
   52    56     1     0     0
SMALL
bcc


@<TRIPOS>ATOM
      1 C1           0.0000     0.0000     0.0000 c3         1 10Q       0.347500
      2 C2           1.5440     0.0000     0.0000 c3         1 10Q      -0.165700
      3 N1           1.3680     0.3010     2.4770 n          1 10Q      -0.384300
      4 C3           0.0180     0.5930     2.3670 c2         1 10Q       0.717800
      5 C4           2.0910     0.0000     1.3910 c          1 10Q       0.717500
      6 N2          -0.4750     0.8500     1.1010 nu         1 10Q      -0.964200
      7 C5          -0.5710    -1.3920     0.0710 cc         1 10Q      -0.064400
      8 N3           0.7340     1.7320    -1.4970 nh         1 10Q      -0.650300
      9 C6          -0.3260     0.7150    -1.3350 c3         1 10Q       0.121800
     10 C7           1.9130     1.3090    -0.7190 c3         1 10Q       0.201800
     11 C8          -1.7340    -1.7130     0.6320 cd         1 10Q      -0.106000
     12 C9          -2.0580    -3.0680     0.5770 cd         1 10Q      -0.045000
     13 S1           0.1960    -2.8330    -0.5830 ss         1 10Q      -0.161800
     14 C10         -1.1400    -3.8360    -0.0360 cc         1 10Q      -0.051100
     15 C11          1.0550     1.9040    -2.8320 ca         1 10Q       0.641200
     16 N4          -6.0930    -7.8230     1.9560 n1         1 10Q      -0.373800
     17 N5          -0.7550     0.6250     3.4130 n2         1 10Q      -1.028100
     18 C12         -3.3120    -3.6170     1.1500 ca         1 10Q       0.013000
     19 C13          2.0400     2.8380    -3.2000 ca         1 10Q      -0.152300
     20 C14         -5.7400    -6.7420     1.8730 cg         1 10Q       0.247800
     21 O1           3.2590    -0.2890     1.5450 o          1 10Q      -0.621500
     22 C15          2.3480     2.9930    -4.5560 ca         1 10Q      -0.032000
     23 C16         -3.5780    -4.9790     1.0640 ca         1 10Q      -0.057000
     24 C17          2.0090     0.3200     3.7950 c3         1 10Q       0.105300
     25 C18         -4.7590    -5.4880     1.6050 ca         1 10Q       0.037000
     26 N6           0.4400     1.1830    -3.7560 nb         1 10Q      -0.752000
     27 C19         -4.2220    -2.7690     1.7810 ca         1 10Q      -0.131000
     28 C20          0.7160     1.3150    -5.0390 ca         1 10Q       0.459200
     29 C21         -5.3900    -3.2770     2.3150 ca         1 10Q      -0.190000
     30 C22          1.6680     2.2170    -5.4780 ca         1 10Q      -0.276300
     31 C23         -5.6650    -4.6270     2.2280 ca         1 10Q      -0.140000
     32 C24          2.7140     3.6170    -2.2050 cg         1 10Q       0.246800
     33 N7           3.2480     4.2500    -1.4280 n1         1 10Q      -0.355800
     34 H1           1.5880    -0.9480    -0.5220 hc         1 10Q       0.104700
     35 H2          -0.6710     0.0470    -2.1150 h1         1 10Q       0.082200
     36 H3          -1.3920     0.8710    -1.2200 h1         1 10Q       0.082200
     37 H4           2.4070     2.0110    -0.0570 h1         1 10Q       0.076700
     38 H5           2.5890     0.9490    -1.4860 h1         1 10Q       0.076700
     39 H6          -2.4340    -0.9140     0.8470 ha         1 10Q       0.158000
     40 H7          -1.1070    -4.8160    -0.4970 h4         1 10Q       0.179000
     41 H8          -1.6750     0.9150     3.6790 hn         1 10Q       0.482400
     42 H10          3.1970     3.5450    -4.9420 ha         1 10Q       0.157000
     43 H11         -2.7760    -5.5720     0.6410 ha         1 10Q       0.150000
     44 H12          1.4980     0.9770     4.4880 h1         1 10Q       0.062367
     45 H13          2.4690    -0.6540     3.9120 h1         1 10Q       0.062367
     46 H14          2.8120     1.0130     3.5740 h1         1 10Q       0.062367
     47 H15         -4.3740    -1.7900     2.2170 ha         1 10Q       0.154000
     48 H16          0.1860     0.5200    -5.5500 h4         1 10Q       0.036100
     49 H17         -6.0040    -2.5500     2.8330 ha         1 10Q       0.131000
     50 H18          1.6460     2.5170    -6.5190 ha         1 10Q       0.151000
     51 H19         -6.5470    -4.5500     2.8530 ha         1 10Q       0.165000
     52 H20         -1.0870     1.5810     1.4060 hn         1 10Q       0.473800
@<TRIPOS>BOND
     1    33    32 3   
     2    14    13 1   
     3    14    12 2   
     4    13     7 1   
     5    32    19 1   
     6    27    29 ar  
     7    27    18 ar  
     8    29    31 ar  
     9    12    18 1   
    10    12    11 1   
    11    18    23 ar  
    12    19    22 ar  
    13    19    15 ar  
    14    22    30 ar  
    15     7    11 2   
    16     7     1 1   
    17     9     8 1   
    18     9     1 1   
    19    31    25 ar  
    20    15     8 1   
    21    15    26 ar  
    22     8    10 1   
    23    23    25 ar  
    24     1     2 1   
    25     1     6 1   
    26    30    28 ar  
    27    25    20 1   
    28     2    10 1   
    29     2     5 1   
    30    26    28 ar  
    31     6     4 1   
    32    20    16 3   
    33     5    21 2   
    34     5     3 1   
    35     4     3 1   
    36     4    17 2   
    37     3    24 1   
    38     2    34 1   
    39     9    35 1   
    40     9    36 1   
    41    10    37 1   
    42    10    38 1   
    43    11    39 1   
    44    14    40 1   
    45    17    41 1   
    46    22    42 1   
    47    23    43 1   
    48    24    44 1   
    49    24    45 1   
    50    24    46 1   
    51    27    47 1   
    52    28    48 1   
    53    29    49 1   
    54    30    50 1   
    55    31    51 1   
    56     6    52 1   
@<TRIPOS>SUBSTRUCTURE
     1 10Q         1 TEMP              0 ****  ****    0 ROOT
