@<TRIPOS>MOLECULE
10Q
   52    57     1     0     0
SMALL
bcc


@<TRIPOS>ATOM
      1 C1           0.0000     0.0000     0.0000 c3         1 10Q       0.066000
      2 C2           1.5440     0.0000     0.0000 c3         1 10Q      -0.368000
      3 N1           1.3680     0.3010     2.4770 n          1 10Q       0.054000
      4 C3           0.0180     0.5930     2.3670 c2         1 10Q      -0.060000
      5 C4           2.0910     0.0000     1.3910 c2         1 10Q       0.208000
      6 N2          -0.4750     0.8500     1.1010 n7         1 10Q      -0.017000
      7 C5          -0.5710    -1.3920     0.0710 c2         1 10Q      -0.227000
      8 N3           0.7340     1.7320    -1.4970 nx         1 10Q       0.084000
      9 C6          -0.3260     0.7150    -1.3350 c3         1 10Q      -0.338000
     10 C7           1.9130     1.3090    -0.7190 c3         1 10Q       0.044000
     11 C8          -1.7340    -1.7130     0.6320 c2         1 10Q      -0.134000
     12 C9          -2.0580    -3.0680     0.5770 c2         1 10Q      -0.076000
     13 S1           0.1960    -2.8330    -0.5830 ss         1 10Q       0.352000
     14 C10         -1.1400    -3.8360    -0.0360 c2         1 10Q      -0.262000
     15 C11          1.0550     1.9040    -2.8320 c2         1 10Q      -0.061000
     16 N4          -3.1070    -6.8700     3.3380 n1         1 10Q      -0.108000
     17 N5          -0.7550     0.6250     3.4130 n2         1 10Q      -0.238000
     18 C12         -3.3120    -3.6170     1.1500 ca         1 10Q      -0.023000
     19 C13          2.0400     2.8380    -3.2000 c2         1 10Q      -0.024000
     20 C14         -3.8550    -6.5320     2.4480 c1         1 10Q      -0.102000
     21 O1           3.2590    -0.2890     1.5450 o          1 10Q      -0.346000
     22 C15          2.3480     2.9930    -4.5560 c2         1 10Q      -0.019000
     23 C16         -3.5780    -4.9790     1.0640 ca         1 10Q      -0.085000
     24 C17          2.0090     0.3200     3.7950 c3         1 10Q      -0.100000
     25 C18         -4.7590    -5.4880     1.6050 ca         1 10Q       0.058000
     26 N6           0.4400     1.1830    -3.7560 n2         1 10Q      -0.042000
     27 C19         -4.2220    -2.7690     1.7810 ca         1 10Q      -0.061000
     28 C20          0.7160     1.3150    -5.0390 c2         1 10Q      -0.020000
     29 C21         -5.3900    -3.2770     2.3150 ca         1 10Q      -0.100000
     30 C22          1.6680     2.2170    -5.4780 c2         1 10Q      -0.159000
     31 C23         -5.6650    -4.6270     2.2280 ca         1 10Q      -0.057000
     32 C24          2.7140     3.6170    -2.2050 c1         1 10Q      -0.110000
     33 N7           3.2380     4.2500    -1.4210 n1         1 10Q      -0.028000
     34 H1           1.8540     0.8880    -0.5370 hc         1 10Q       0.194000
     35 H2          -1.2330     0.3070    -1.7640 hx         1 10Q       0.189000
     36 H3          -0.4300     1.7810    -1.1710 DU         1 10Q       0.181000
     37 H4           2.3140     2.0230    -0.0100 hx         1 10Q       0.097500
     38 H5           2.6320     1.1120    -1.5060 hx         1 10Q       0.097500
     39 H6          -2.5490    -1.0300     0.8390 ha         1 10Q       0.132000
     40 H7          -1.2010    -4.9080    -0.1820 h4         1 10Q       0.155000
     41 H8          -0.3770     0.4360     4.3210 hn         1 10Q       0.100000
     42 H10          3.1030     3.7080    -4.8620 ha         1 10Q       0.123000
     43 H11         -2.8530    -5.6460     0.6130 ha         1 10Q       0.130000
     44 H12          1.4620    -0.3240     4.4720 h1         1 10Q       0.066667
     45 H13          2.0100     1.3320     4.1810 h1         1 10Q       0.066667
     46 H14          3.0290    -0.0330     3.7050 h1         1 10Q       0.066667
     47 H15         -3.9750    -1.7250     1.9320 ha         1 10Q       0.118000
     48 H16          0.1940     0.7100    -5.7700 h4         1 10Q       0.126000
     49 H17         -6.0950    -2.6160     2.8040 ha         1 10Q       0.114000
     50 H18          1.8860     2.3150    -6.5350 ha         1 10Q       0.125000
     51 H19         -6.5820    -5.0200     2.6510 ha         1 10Q       0.115000
     52 H20         -1.4550     0.9370     1.2850 hn         1 10Q       0.103000
@<TRIPOS>BOND
     1     1     2 1   
     2     1     6 1   
     3     1     7 1   
     4     1     9 1   
     5     2     5 1   
     6     2    10 1   
     7     2    34 1   
     8     3     4 1   
     9     3     5 1   
    10     3    24 1   
    11     4     6 1   
    12     4    17 1   
    13     5    21 1   
    14     6    52 1   
    15     7    11 1   
    16     7    13 1   
    17     8     9 1   
    18     8    10 1   
    19     8    15 1   
    20     8    36 1   
    21     9    35 1   
    22     9    36 1   
    23    10    37 1   
    24    10    38 1   
    25    11    12 1   
    26    11    39 1   
    27    12    14 1   
    28    12    18 1   
    29    13    14 1   
    30    14    40 1   
    31    15    19 1   
    32    15    26 1   
    33    16    20 1   
    34    17    41 1   
    35    18    23 1   
    36    18    27 1   
    37    19    22 1   
    38    19    32 1   
    39    20    25 1   
    40    22    30 1   
    41    22    42 1   
    42    23    25 1   
    43    23    43 1   
    44    24    44 1   
    45    24    45 1   
    46    24    46 1   
    47    25    31 1   
    48    26    28 1   
    49    27    29 1   
    50    27    47 1   
    51    28    30 1   
    52    28    48 1   
    53    29    31 1   
    54    29    49 1   
    55    30    50 1   
    56    31    51 1   
    57    32    33 1   
@<TRIPOS>SUBSTRUCTURE
     1 10Q         1 TEMP              0 ****  ****    0 ROOT
