@<TRIPOS>MOLECULE
molecule
   47    48     1     0     0
SMALL
bcc


@<TRIPOS>ATOM
      1 C4           0.0000     0.0000     0.0000 c3         1 10T      -0.158700
      2 C5           1.5200     0.0000     0.0000 ca         1 10T       0.457600
      3 C7           3.5280     0.0280    -1.2820 ca         1 10T       0.497600
      4 C8           4.1900     0.0510    -2.6470 c3         1 10T      -0.162400
      5 C17          2.2530     0.0000     1.1860 ca         1 10T      -0.225600
      6 C20          4.3980     0.0290     2.4050 cp         1 10T      -0.093000
      7 C21          4.3520    -1.0920     3.2310 ca         1 10T      -0.036000
      8 C22          5.0300    -1.0770     4.4460 ca         1 10T      -0.146000
      9 C26          5.1110     1.1730     2.7860 ca         1 10T      -0.036000
     10 O14          6.3590     1.1210    -0.5770 o          1 10T      -0.540300
     11 O15          6.4310    -0.9530     0.0600 o          1 10T      -0.540300
     12 C12          4.2890     0.0380    -0.1180 ca         1 10T      -0.293900
     13 C16          3.6440     0.0140     1.1240 cp         1 10T       0.042000
     14 C23          5.7510     0.0560     4.8240 ca         1 10T      -0.056300
     15 C25          5.8020     1.1810     3.9980 ca         1 10T      -0.146000
     16 C18          1.5510    -0.0100     2.5320 c3         1 10T       0.206100
     17 N19          1.6540     1.3020     3.1480 nz         1 10T      -1.121600
     18 C2          -0.5940    -1.3930    -0.0080 c3         1 10T      -0.149700
     19 C1          -0.0710    -2.1840    -1.2030 c3         1 10T      -0.000100
     20 C3          -2.1160    -1.3030    -0.0030 c3         1 10T      -0.000100
     21 N6           2.1710     0.0170    -1.1920 nb         1 10T      -0.687000
     22 C13          5.7880     0.0700    -0.2200 c          1 10T       0.907200
     23 C24          6.4840     0.0420     6.1400 c3         1 10T      -0.056800
     24 H4          -0.3480     0.5310    -0.8780 hc         1 10T       0.061700
     25 H4A         -0.3480     0.5220     0.8830 hc         1 10T       0.061700
     26 H8           3.9160    -0.8420    -3.1970 hc         1 10T       0.071033
     27 H8A          3.8620     0.9260    -3.1940 hc         1 10T       0.071033
     28 H8B          5.2660     0.0830    -2.5260 hc         1 10T       0.071033
     29 H21          3.9040    -2.0100     2.8730 ha         1 10T       0.120000
     30 H22          5.0000    -1.9440     5.0950 ha         1 10T       0.141000
     31 H24          6.1720    -0.8190     6.7180 hc         1 10T       0.048700
     32 H24A         7.5510    -0.0110     5.9580 hc         1 10T       0.048700
     33 H24B         6.2560     0.9470     6.6890 hc         1 10T       0.048700
     34 H26          5.0690     0.3130     3.4430 ha         1 10T       0.120000
     35 H25          6.3330     1.1700     4.9430 ha         1 10T       0.141000
     36 H18          2.4870     0.5250     2.4280 hx         1 10T       0.111700
     37 H18A         2.4930     0.3950     2.8790 hx         1 10T       0.111700
     38 HN19         1.8280     0.3160     3.1620 hn         1 10T       0.305800
     39 HN1A         1.1010     0.5510     2.7850 hn         1 10T       0.305800
     40 H2          -0.0500    -0.8800     0.7750 hc         1 10T       0.111700
     41 H1           0.3250    -1.4360    -0.5280 hc         1 10T       0.013700
     42 H1A         -0.1770    -2.0410    -0.1340 hc         1 10T       0.013700
     43 H1B          0.0380    -1.5230    -2.0540 hc         1 10T       0.013700
     44 H3          -1.1630    -1.7200    -0.3050 hc         1 10T       0.013700
     45 H3A         -1.5550    -2.0050    -0.6090 hc         1 10T       0.013700
     46 H3B         -2.5340    -0.3400    -0.2690 hc         1 10T       0.013700
     47 H193         0.7380     1.6450     3.3580 hn         1 10T       0.305800
@<TRIPOS>BOND
     1    18     1 1   
     2     2     1 1   
     3     1    24 1   
     4     1    25 1   
     5     5     2 ar  
     6    21     2 ar  
     7    12     3 ar  
     8     3     4 1   
     9     3    21 ar  
    10     4    26 1   
    11     4    27 1   
    12     4    28 1   
    13    10    22 1   
    14    22    12 1   
    15    22    11 1   
    16    13     5 ar  
    17     5    16 1   
    18     7     6 ar  
    19     6    13 1   
    20     6     9 ar  
    21     8     7 ar  
    22     7    29 1   
    23     8    14 ar  
    24     8    30 1   
    25    23    14 1   
    26    23    31 1   
    27    23    32 1   
    28    23    33 1   
    29    15     9 ar  
    30     9    34 1   
    31    12    13 ar  
    32    14    15 ar  
    33    15    35 1   
    34    16    17 1   
    35    16    36 1   
    36    16    37 1   
    37    17    38 1   
    38    17    39 1   
    39    20    18 1   
    40    18    19 1   
    41    18    40 1   
    42    19    41 1   
    43    19    42 1   
    44    19    43 1   
    45    20    44 1   
    46    20    45 1   
    47    20    46 1   
    48    47    17 1   
@<TRIPOS>SUBSTRUCTURE
     1 10T         1 TEMP              0 ****  ****    0 ROOT
