@<TRIPOS>MOLECULE
molecule
   47    48     1     0     0
SMALL
bcc


@<TRIPOS>ATOM
      1 C4           0.0000     0.0000     0.0000 c3         1 10T      -0.123700
      2 C5           1.5070     0.0000     0.0000 ca         1 10T       0.429600
      3 C7           3.4700    -0.0070    -1.2150 ca         1 10T       0.486600
      4 C8           4.1510    -0.0150    -2.5590 c3         1 10T      -0.145400
      5 C17          2.1840     0.0000     1.2020 ca         1 10T      -0.334600
      6 C20          4.3480     0.0000     2.4640 cp         1 10T      -0.072000
      7 C21          4.3320     1.1220     3.2920 ca         1 10T      -0.101500
      8 C22          5.0490     1.1160     4.4710 ca         1 10T      -0.132500
      9 C26          5.0850    -1.1240     2.8360 ca         1 10T      -0.101500
     10 O14          6.3850    -1.1680    -0.1510 o          1 10T      -0.798300
     11 O15          6.3190     1.0500    -0.1590 o          1 10T      -0.798300
     12 C12          4.2390    -0.0020    -0.0510 ca         1 10T      -0.166900
     13 C16          3.5800    -0.0000     1.1970 cp         1 10T       0.031000
     14 C23          5.7820     0.0000     4.8320 ca         1 10T      -0.074300
     15 C25          5.7980    -1.1180     4.0180 ca         1 10T      -0.132500
     16 C18          1.4260     0.0020     2.5040 c3         1 10T       0.161100
     17 N19          1.0930    -1.3780     2.8790 nz         1 10T      -0.809600
     18 C2          -0.5100     1.4420    -0.0010 c3         1 10T      -0.073700
     19 C1          -2.0350     1.4450     0.1250 c3         1 10T      -0.087100
     20 C3          -0.1050     2.1260    -1.3080 c3         1 10T      -0.087100
     21 N6           2.1540    -0.0060    -1.1510 nb         1 10T      -0.701000
     22 H4          -0.3610    -0.5100     0.8850 hc         1 10T       0.035200
     23 H4A         -0.3610    -0.5110    -0.8840 hc         1 10T       0.035200
     24 H8           4.7300     0.8930    -2.6760 hc         1 10T       0.069033
     25 H8A          4.8080    -0.8730    -2.6270 hc         1 10T       0.069033
     26 H8B          3.4040    -0.0700    -3.3420 hc         1 10T       0.069033
     27 H21          3.7590     1.9980     3.0090 ha         1 10T       0.145500
     28 H22          5.0370     1.9870     5.1140 ha         1 10T       0.134500
     29 H24          6.3570    -0.9120     6.6690 hc         1 10T       0.044700
     30 H24A         7.6230     0.0570     5.9020 hc         1 10T       0.044700
     31 H24B         6.2730     0.8550     6.7200 hc         1 10T       0.044700
     32 H26          5.0990    -1.9990     2.1980 ha         1 10T       0.145500
     33 H25          6.3720    -1.9900     4.3070 ha         1 10T       0.134500
     34 H18          2.0390     0.4480     3.2780 hx         1 10T       0.106200
     35 H18A         0.5140     0.5760     2.3910 hx         1 10T       0.106200
     36 HN19         0.1000    -1.5000     2.8550 hn         1 10T       0.446467
     37 HN1A         1.4300    -1.5640     3.8030 hn         1 10T       0.446467
     38 H2          -0.0770     1.9780     0.8350 hc         1 10T       0.040700
     39 H1          -2.4670     0.9110    -0.7130 hc         1 10T       0.040533
     40 H1A         -2.3220     0.9580     1.0500 hc         1 10T       0.040533
     41 H1B         -2.3950     2.4660     0.1280 hc         1 10T       0.040533
     42 H3           0.8890     2.5430    -1.2050 hc         1 10T       0.040533
     43 H3A         -0.1100     1.3990    -2.1120 hc         1 10T       0.040533
     44 H3B         -0.8080     2.9180    -1.5340 hc         1 10T       0.040533
     45 C13          5.7120    -0.0010    -0.1240 c          1 10T       0.874200
     46 C24          6.5630     0.0000     6.1210 c3         1 10T      -0.049800
     47 H193         1.5110    -2.0110     2.2260 hn         1 10T       0.446467
@<TRIPOS>BOND
     1    18     1 1
     2     2     1 1
     3     1    22 1
     4     1    23 1
     5     5     2 ar
     6    21     2 ar
     7    12     3 ar
     8     3     4 1
     9     3    21 ar
    10     4    24 1
    11     4    25 1
    12     4    26 1
    13    10    45 1
    14    45    12 1
    15    45    11 1
    16    13     5 ar
    17     5    16 1
    18     7     6 ar
    19     6    13 1
    20     6     9 ar
    21     8     7 ar
    22     7    27 1
    23     8    14 ar
    24     8    28 1
    25    46    14 1
    26    46    29 1
    27    46    30 1
    28    46    31 1
    29    15     9 ar
    30     9    32 1
    31    12    13 ar
    32    14    15 ar
    33    15    33 1
    34    16    17 1
    35    16    34 1
    36    16    35 1
    37    17    36 1
    38    17    37 1
    39    20    18 1
    40    18    19 1
    41    18    38 1
    42    19    39 1
    43    19    40 1
    44    19    41 1
    45    20    42 1
    46    20    43 1
    47    20    44 1
    48    47    17 1
@<TRIPOS>SUBSTRUCTURE
     1 10T         1 TEMP              0 ****  ****    0 ROOT
