@<TRIPOS>MOLECULE
10V
   55    59     1     0     0
SMALL
bcc


@<TRIPOS>ATOM
      1 C1          -0.4020     0.3010     0.0980 ca         1 10V      -0.134000
      2 C2           0.6550     1.2080     0.0780 ca         1 10V      -0.092000
      3 C3           1.2360     1.6160     1.2870 ca         1 10V      -0.017000
      4 C4           0.7600     1.1160     2.5050 ca         1 10V      -0.082000
      5 C5          -0.3030     0.2020     2.5210 ca         1 10V      -0.012000
      6 C6          -0.8790    -0.2010     1.3070 ca         1 10V      -0.100000
      7 C7          -0.8010    -0.3200     3.7780 cc         1 10V      -0.077000
      8 C8           0.0150    -0.4940     4.9470 cc         1 10V      -0.100000
      9 C9          -0.7040    -1.0070     6.0090 cd         1 10V      -0.142400
     10 S1          -2.3130    -1.2650     5.5730 ss         1 10V       0.055200
     11 C10         -2.1060    -0.7170     4.0220 cd         1 10V      -0.164100
     12 C11         -0.1470    -1.2860     7.3710 c3         1 10V       0.311500
     13 C12         -0.2700    -0.0150     8.2660 c3         1 10V      -0.159700
     14 C13          0.9730     0.8430     8.3280 c          1 10V       0.718500
     15 N1           2.2120     0.2300     8.1740 n          1 10V      -0.392300
     16 C14          2.3040    -1.1860     7.9680 c2         1 10V       0.668800
     17 N2           1.2110    -1.7940     7.2720 nu         1 10V      -0.854200
     18 N3           3.3960    -1.8080     8.3360 n2         1 10V      -0.859100
     19 C15         -1.0830    -2.3020     8.1410 c3         1 10V       0.162800
     20 C16          3.4310     0.9840     8.3340 c3         1 10V       0.090300
     21 O1           0.8900     2.0700     8.5160 o          1 10V      -0.614500
     22 C17          2.3150     2.5430     1.2760 cg         1 10V       0.233800
     23 N4           3.1970     3.3010     1.2650 n1         1 10V      -0.362800
     24 C18         -0.6450    -0.5320     9.6720 c3         1 10V       0.188800
     25 N5          -1.0040    -1.9450     9.5530 nh         1 10V      -0.722300
     26 C19         -2.9530    -2.6370    12.6810 ca         1 10V      -0.142000
     27 C20         -2.0340    -2.0420    11.8140 ca         1 10V      -0.015200
     28 C21         -2.0090    -2.4380    10.4250 ca         1 10V       0.609200
     29 C23         -3.7560    -3.9300    10.8270 ca         1 10V       0.398200
     30 C24         -3.8320    -3.6020    12.1870 ca         1 10V      -0.245300
     31 C25         -0.9420    -0.9280    13.6110 c3         1 10V       0.112700
     32 N6          -2.8920    -3.3730     9.9640 nb         1 10V      -0.703000
     33 H1          -0.8610    -0.0230    -0.8490 ha         1 10V       0.140000
     34 H2           1.0320     1.6030    -0.8770 ha         1 10V       0.145000
     35 H3           1.2160     1.4460     3.4510 ha         1 10V       0.151000
     36 H4          -1.7110    -0.9220     1.3120 ha         1 10V       0.138000
     37 H5           1.0810    -0.2520     4.9670 ha         1 10V       0.170000
     38 H6          -2.9190    -0.6740     3.2970 h4         1 10V       0.176000
     39 H7          -1.0980     0.6320     7.8680 hc         1 10V       0.107700
     40 H8           3.4220    -2.7860     8.1490 hn         1 10V       0.399400
     41 H10         -0.7510    -3.3670     8.0210 h1         1 10V       0.067200
     42 H11         -2.1310    -2.2200     7.7320 h1         1 10V       0.067200
     43 H12          3.9080     0.7500     9.3230 h1         1 10V       0.058700
     44 H13          4.1490     0.7220     7.5120 h1         1 10V       0.058700
     45 H14          3.1940     2.0810     8.2870 h1         1 10V       0.058700
     46 H15         -1.4790     0.0900    10.0980 h1         1 10V       0.075700
     47 H16          0.2290    -0.4670    10.3790 h1         1 10V       0.075700
     48 H17         -2.9890    -2.3530    13.7420 ha         1 10V       0.145000
     49 H18         -4.4310    -4.6850    10.3850 h4         1 10V       0.024100
     50 H19         -4.5620    -4.0890    12.8440 ha         1 10V       0.147000
     51 H20         -0.6810    -1.9110    14.0700 h1         1 10V       0.047367
     52 H21         -0.0810    -0.2160    13.6790 h1         1 10V       0.047367
     53 H22         -1.8490    -0.4930    14.0980 h1         1 10V       0.047367
     54 H23          1.2480    -2.7920     7.2500 hn         1 10V       0.419800
     55 O2          -1.1500    -1.0560    12.2070 os         1 10V      -0.326900
@<TRIPOS>BOND
     1     1     2 ar  
     2     1     6 ar  
     3     1    33 1   
     4     2     3 ar  
     5     2    34 1   
     6     3     4 ar  
     7     3    22 1   
     8     4     5 ar  
     9     4    35 1   
    10     5     6 ar  
    11     5     7 1   
    12     6    36 1   
    13     7     8 1   
    14     7    11 2   
    15     8     9 2   
    16     8    37 1   
    17     9    10 1   
    18     9    12 1   
    19    10    11 1   
    20    11    38 1   
    21    12    13 1   
    22    12    17 1   
    23    12    19 1   
    24    13    14 1   
    25    13    24 1   
    26    13    39 1   
    27    14    15 1   
    28    14    21 2   
    29    15    16 1   
    30    15    20 1   
    31    16    17 1   
    32    16    18 2   
    33    17    54 1   
    34    18    40 1   
    35    19    25 1   
    36    19    41 1   
    37    19    42 1   
    38    20    43 1   
    39    20    44 1   
    40    20    45 1   
    41    22    23 3   
    42    24    25 1   
    43    24    46 1   
    44    24    47 1   
    45    25    28 1   
    46    26    27 ar  
    47    26    30 ar  
    48    26    48 1   
    49    27    28 ar  
    50    27    55 1   
    51    28    32 ar  
    52    29    30 ar  
    53    29    32 ar  
    54    29    49 1   
    55    30    50 1   
    56    31    51 1   
    57    31    52 1   
    58    31    53 1   
    59    31    55 1   
@<TRIPOS>SUBSTRUCTURE
     1 10V         1 TEMP              0 ****  ****    0 ROOT
