@<TRIPOS>MOLECULE
10V
   55    59     1     0     0
SMALL
bcc


@<TRIPOS>ATOM
      1 C1          0.2720    0.3070   -0.0630 ca        1 10V     -0.133000
      2 C2          1.6270    0.6030    0.0730 ca        1 10V     -0.090000
      3 C3          2.2080    0.6080    1.3490 ca        1 10V     -0.018000
      4 C4          1.4330    0.3180    2.4790 ca        1 10V     -0.083000
      5 C5          0.0700    0.0210    2.3390 ca        1 10V     -0.015000
      6 C6         -0.5030    0.0170    1.0580 ca        1 10V     -0.097000
      7 C7         -0.7330   -0.2830    3.5060 cc        1 10V     -0.068000
      8 C8         -2.1290    0.0280    3.6130 cc        1 10V     -0.123000
      9 C9         -2.6570   -0.3720    4.8270 cd        1 10V     -0.177400
     10 S1         -1.4800   -1.0970    5.7810 ss        1 10V      0.081200
     11 C10        -0.2760   -0.9040    4.6590 cd        1 10V     -0.165100
     12 C11        -4.0860   -0.1690    5.2240 c3        1 10V      0.274500
     13 C12        -4.3950   -0.7700    6.6240 c3        1 10V     -0.147700
     14 C13        -5.0560   -2.1320    6.6270 c         1 10V      0.721500
     15 N1         -5.3480   -2.7590    5.4170 n         1 10V     -0.431300
     16 C14        -5.1960   -2.0860    4.1520 c2        1 10V      0.648800
     17 N2         -5.0370   -0.6590    4.2290 nh        1 10V     -0.761200
     18 N3         -5.2530   -2.6550    2.9780 n2        1 10V     -0.858100
     19 C15        -4.3200    1.3770    5.4540 c3        1 10V      0.201800
     20 C16        -5.9540   -4.0660    5.4110 c3        1 10V      0.064300
     21 O1         -5.2970   -2.7040    7.7070 o         1 10V     -0.621500
     22 C17         3.5890    0.9100    1.4980 cg        1 10V      0.233800
     23 N4          4.7200    1.1560    1.6190 n1        1 10V     -0.363800
     24 C18        -5.3070    0.2640    7.3230 c3        1 10V      0.207800
     25 N5         -5.2610    1.5080    6.5600 nh        1 10V     -0.721300
     26 C19        -6.2640    4.1270    9.0460 ca        1 10V     -0.137000
     27 C20        -6.1570    2.8800    8.4270 ca        1 10V     -0.025200
     28 C21        -5.2920    2.7250    7.2800 ca        1 10V      0.619200
     29 C23        -4.7090    4.9800    7.4330 ca        1 10V      0.402200
     30 C24        -5.5330    5.2040    8.5440 ca        1 10V     -0.253300
     31 C25        -7.9810    1.9980    9.6710 c3        1 10V      0.113700
     32 N6         -4.5740    3.7930    6.8190 nb        1 10V     -0.706000
     33 H1         -0.1880    0.2990   -1.0620 ha        1 10V      0.142000
     34 H2          2.2370    0.8320   -0.8140 ha        1 10V      0.146000
     35 H3          1.8930    0.3280    3.4790 ha        1 10V      0.146000
     36 H4         -1.5710   -0.2250    0.9400 ha        1 10V      0.143000
     37 H5         -2.6840    0.5340    2.8190 ha        1 10V      0.158000
     38 H6          0.7470   -1.2430    4.8220 h4        1 10V      0.179000
     39 H7         -3.4400   -0.8740    7.2120 hc        1 10V      0.090700
     40 H8         -5.4820   -3.6230    2.9560 hn        1 10V      0.405400
     41 H10        -3.3210    1.8500    5.6630 h1        1 10V      0.072700
     42 H11        -4.7660    1.8740    4.5520 h1        1 10V      0.072700
     43 H12        -6.9230   -4.0470    4.8440 h1        1 10V      0.057033
     44 H13        -5.2600   -4.8080    4.9330 h1        1 10V      0.057033
     45 H14        -6.1600   -4.3950    6.4660 h1        1 10V      0.057033
     46 H15        -6.3760   -0.0880    7.3350 h1        1 10V      0.077200
     47 H16        -4.9760    0.4000    8.3900 h1        1 10V      0.077200
     48 H17        -6.9200    4.2650    9.9180 ha        1 10V      0.143000
     49 H18        -4.1070    5.7980    6.9950 h4        1 10V      0.023100
     50 H19        -5.5990    6.1960    9.0050 ha        1 10V      0.146000
     51 H20        -7.6880    2.3510   10.6900 h1        1 10V      0.045700
     52 H21        -8.6560    2.7370    9.1780 h1        1 10V      0.045700
     53 H22        -8.4680    0.9910    9.7310 h1        1 10V      0.045700
     54 H23        -4.8710   -0.2470    3.3280 hn        1 10V      0.419800
     55 O2         -6.8180    1.7550    8.8840 os        1 10V     -0.327900
@<TRIPOS>BOND
     1    1    2 ar  
     2    1    6 ar  
     3    1   33 1   
     4    2    3 ar  
     5    2   34 1   
     6    3    4 ar  
     7    3   22 1   
     8    4    5 ar  
     9    4   35 1   
    10    5    6 ar  
    11    5    7 1   
    12    6   36 1   
    13    7    8 1   
    14    7   11 2   
    15    8    9 2   
    16    8   37 1   
    17    9   10 1   
    18    9   12 1   
    19   10   11 1   
    20   11   38 1   
    21   12   13 1   
    22   12   17 1   
    23   12   19 1   
    24   13   14 1   
    25   13   24 1   
    26   13   39 1   
    27   14   15 1   
    28   14   21 2   
    29   15   16 1   
    30   15   20 1   
    31   16   17 1   
    32   16   18 2   
    33   17   54 1   
    34   18   40 1   
    35   19   25 1   
    36   19   41 1   
    37   19   42 1   
    38   20   43 1   
    39   20   44 1   
    40   20   45 1   
    41   22   23 3   
    42   24   25 1   
    43   24   46 1   
    44   24   47 1   
    45   25   28 1   
    46   26   27 ar  
    47   26   30 ar  
    48   26   48 1   
    49   27   28 ar  
    50   27   55 1   
    51   28   32 ar  
    52   29   30 ar  
    53   29   32 ar  
    54   29   49 1   
    55   30   50 1   
    56   31   51 1   
    57   31   52 1   
    58   31   53 1   
    59   31   55 1   
@<TRIPOS>SUBSTRUCTURE
     1 10V         1 TEMP              0 ****  ****    0 ROOT
