@<TRIPOS>MOLECULE
molecule
   55    59     1     0     0
SMALL
bcc


@<TRIPOS>ATOM
      1 C1           0.0000     0.0000     0.0000 ca         1 10V      -0.108000
      2 C2           1.3810     0.0000     0.0000 ca         1 10V      -0.082000
      3 C3           2.0810     0.0000     1.2100 ca         1 10V      -0.007000
      4 C4           1.3810    -0.0010     2.4150 ca         1 10V      -0.079000
      5 C5          -0.0100    -0.0020     2.4060 ca         1 10V      -0.058000
      6 C6          -0.6970     0.0040     1.1930 ca         1 10V      -0.109000
      7 C7          -0.7610    -0.0030     3.6850 cc         1 10V      -0.027000
      8 C8          -2.1540    -0.0040     3.7430 cc         1 10V      -0.142000
      9 C9          -2.6650    -0.0050     4.9710 cd         1 10V      -0.072400
     10 S1          -1.3690    -0.0060     6.1590 ss         1 10V      -0.150800
     11 C10         -0.1550    -0.0100     4.8870 cd         1 10V      -0.041100
     12 C11         -4.1370    -0.0060     5.2960 c3         1 10V       0.221500
     13 C12         -4.4410    -0.7230     6.6300 c3         1 10V      -0.186700
     14 C13         -4.6440    -2.1890     6.4290 c          1 10V       0.715500
     15 N1          -4.8700    -2.7550     5.2360 n          1 10V      -0.352300
     16 C14         -4.8820    -1.9890     4.0830 c2         1 10V       0.626800
     17 N2          -4.9370    -0.6250     4.2300 nu         1 10V      -0.802200
     18 N3          -4.8320    -2.5390     2.9040 n2         1 10V      -0.828100
     19 C15         -4.6800     1.4190     5.5590 c3         1 10V       0.034800
     20 C16         -5.1050    -4.1990     5.1500 c3         1 10V       0.092300
     21 O1          -4.6010    -2.9100     7.4030 o          1 10V      -0.609500
     22 C17          3.5130     0.0000     1.2090 cg         1 10V       0.237800
     23 N4           4.6480     0.0120     1.2260 n1         1 10V      -0.356800
     24 C18         -5.7450    -0.0630     7.1120 c3         1 10V      -0.001200
     25 N5          -5.8720     1.2270     6.4110 nh         1 10V      -0.413300
     26 C19         -6.5830     4.3830     9.1350 ca         1 10V      -0.186000
     27 C20         -6.5640     3.2710     8.3080 ca         1 10V       0.046800
     28 C21         -5.4880     3.0930     7.4360 ca         1 10V       0.313200
     29 C23         -4.4980     5.0430     8.1720 ca         1 10V       0.390200
     30 C24         -5.5270     5.2820     9.0600 ca         1 10V      -0.288300
     31 C25         -8.8020     2.7110     8.5570 c3         1 10V       0.163700
     32 N6          -4.5000     3.9710     7.4020 nb         1 10V      -0.681000
     33 H1          -0.5680    -0.0770    -0.9190 ha         1 10V       0.142000
     34 H2           1.9290    -0.1530    -0.9210 ha         1 10V       0.147000
     35 H3           1.7810     0.0090     3.4220 ha         1 10V       0.147000
     36 H4          -1.7190     0.1010     1.5380 ha         1 10V       0.147000
     37 H5          -2.8190    -0.4020     2.9860 ha         1 10V       0.147000
     38 H6           0.6970    -0.3960     5.4330 h4         1 10V       0.190000
     39 H7          -3.6440    -0.5450     7.3420 hc         1 10V       0.109700
     40 H8          -4.7560    -1.7970     2.2370 hn         1 10V       0.375400
     41 H10         -5.7560     1.5210     5.4830 h1         1 10V       0.206700
     42 H11         -3.8670     2.1240     5.4340 h1         1 10V       0.206700
     43 H12         -4.3130    -4.9280     5.2740 h1         1 10V       0.058033
     44 H13         -5.5350    -4.4800     4.1960 h1         1 10V       0.058033
     45 H14         -5.8410    -4.5110     5.8810 h1         1 10V       0.058033
     46 H15         -6.0320    -0.9230     7.7050 h1         1 10V       0.177200
     47 H16         -5.3370     0.8570     7.5120 h1         1 10V       0.177200
     48 H17         -7.1630     4.8160     9.9410 ha         1 10V       0.149000
     49 H18         -3.8190     5.8870     8.2130 h4         1 10V       0.014100
     50 H19         -5.5790     6.2560     9.5310 ha         1 10V       0.129000
     51 H20         -8.9780     3.3650     7.7120 h1         1 10V       0.014367
     52 H21         -8.7990     3.3790     9.4100 h1         1 10V       0.014367
     53 H22         -9.6550     2.0440     8.5970 h1         1 10V       0.014367
     54 H23         -4.6300    -0.1290     3.4160 hn         1 10V       0.399800
     55 O2          -7.5790     2.3660     8.3440 os         1 10V      -0.342900
@<TRIPOS>BOND
     1     6     1 ar
     2     6     5 ar
     3     1     2 ar
     4    11    10 1
     5    11     7 2
     6    10     9 1
     7    29    32 ar
     8    29    30 ar
     9     5     7 1
    10     5     4 ar
    11     2     3 ar
    12     7     8 1
    13    32    28 ar
    14    30    26 ar
    15     9     8 2
    16     9    12 1
    17     4     3 ar
    18     3    22 1
    19    19    12 1
    20    19    25 1
    21    28    25 1
    22    28    27 ar
    23    12    13 1
    24    12    17 1
    25    25    24 1
    26    26    27 ar
    27    22    23 3
    28    13    24 1
    29    13    14 1
    30    27    55 1
    31    17    16 1
    32    14    21 2
    33    14    15 1
    34    55    31 1
    35    16    15 1
    36    16    18 2
    37    15    20 1
    38     1    33 1
    39     2    34 1
    40     4    35 1
    41     6    36 1
    42     8    37 1
    43    11    38 1
    44    13    39 1
    45    18    40 1
    46    19    41 1
    47    19    42 1
    48    20    43 1
    49    20    44 1
    50    20    45 1
    51    24    46 1
    52    24    47 1
    53    26    48 1
    54    29    49 1
    55    30    50 1
    56    31    51 1
    57    31    52 1
    58    31    53 1
    59    17    54 1
@<TRIPOS>SUBSTRUCTURE
     1 10V         1 TEMP              0 ****  ****    0 ROOT
