@<TRIPOS>MOLECULE
molecule
   52    56     1     0     0
SMALL
bcc


@<TRIPOS>ATOM
      1 C1           0.0000     0.0000     0.0000 c          1 10W       0.714500
      2 N1           1.3400     0.0000     0.0000 n          1 10W      -0.377300
      3 C2           2.0450     0.0000     1.1920 c2         1 10W       0.701800
      4 N2           1.3430     0.2940     2.3460 nu         1 10W      -0.948200
      5 N3           3.3200    -0.2670     1.2240 n2         1 10W      -0.889100
      6 C3           2.0650    -0.0000    -1.2720 c3         1 10W       0.106300
      7 O1          -0.5700    -0.0430    -1.0690 o          1 10W      -0.621500
      8 C4          -0.8320     0.0420     1.2410 c3         1 10W      -0.167700
      9 C5           0.0020    -0.2900     2.4960 c3         1 10W       0.316500
     10 C6          -0.7480     0.4900     3.6030 c3         1 10W       0.153800
     11 N4          -1.2330     1.7220     2.9480 nh         1 10W      -0.577000
     12 C7          -1.3270     1.4760     1.5040 c3         1 10W       0.167800
     13 C8           0.0650    -1.7710     2.7630 cc         1 10W      -0.054400
     14 C9           1.0800    -2.4020     3.3590 cc         1 10W      -0.122000
     15 C10          0.9170    -3.7650     3.5050 cc         1 10W      -0.146000
     16 C11         -0.2460    -4.2470     3.0220 cd         1 10W       0.019900
     17 S1          -1.1930    -2.9290     2.3460 ss         1 10W      -0.121800
     18 C12         -0.6610    -5.6660     3.0570 ca         1 10W      -0.024000
     19 C13          0.1780    -6.6240     3.6200 ca         1 10W      -0.055000
     20 C14         -0.2210    -7.9610     3.6490 ca         1 10W      -0.049000
     21 C15         -1.4580    -8.3290     3.1100 ca         1 10W       0.171900
     22 C16         -2.2850    -7.3700     2.5510 ca         1 10W      -0.165000
     23 C17         -1.8970    -6.0460     2.5270 ca         1 10W      -0.077000
     24 C18          0.6360    -8.9520     4.2260 cg         1 10W       0.236800
     25 N5           1.3130    -9.7500     4.6680 n1         1 10W      -0.341800
     26 F1          -1.8470    -9.6230     3.1350 f          1 10W      -0.122900
     27 C19         -2.4650     2.1190     3.4730 ca         1 10W       0.093600
     28 C20         -2.8360     1.7210     4.7510 ca         1 10W      -0.168500
     29 C21         -4.0550     2.1150     5.2670 ca         1 10W      -0.100000
     30 C22         -4.9050     2.9030     4.5130 ca         1 10W      -0.152000
     31 C23         -4.5380     3.3000     3.2410 ca         1 10W      -0.100000
     32 C24         -3.3190     2.9160     2.7200 ca         1 10W      -0.168500
     33 H1           3.8100    -0.2610     2.0970 hn         1 10W       0.412400
     34 H3           2.2390    -1.0220    -1.5890 h1         1 10W       0.058700
     35 H4           1.4780     0.5150    -2.0230 h1         1 10W       0.058700
     36 H5           3.0150     0.5060    -1.1460 h1         1 10W       0.058700
     37 H6          -1.6720    -0.6370     1.1560 hc         1 10W       0.099700
     38 H7          -0.0710     0.7360     4.4110 h1         1 10W       0.067200
     39 H8          -1.5850    -0.0930     3.9700 h1         1 10W       0.067200
     40 H9          -0.7030     2.1820     0.9700 h1         1 10W       0.071200
     41 H10         -2.3580     1.5720     1.1830 h1         1 10W       0.071200
     42 H11          1.9660    -1.8820     3.7020 ha         1 10W       0.155000
     43 H12          1.6640    -4.3970     3.9700 ha         1 10W       0.154000
     44 H13          1.1350    -6.3330     4.0360 ha         1 10W       0.153000
     45 H14         -3.2430    -7.6590     2.1370 ha         1 10W       0.157000
     46 H15         -2.5490    -5.3000     2.0880 ha         1 10W       0.147000
     47 H16         -2.1700     1.1030     5.3420 ha         1 10W       0.136500
     48 H17         -4.3460     1.8060     6.2640 ha         1 10W       0.132500
     49 H18         -5.8620     3.2080     4.9200 ha         1 10W       0.132000
     50 H19         -5.2060     3.9190     2.6540 ha         1 10W       0.132500
     51 H20         -3.0320     3.2270     1.7230 ha         1 10W       0.136500
     52 H21          1.7340     0.8820     3.0540 hn         1 10W       0.464800
@<TRIPOS>BOND
     1    22    23 ar
     2    22    21 ar
     3    23    18 ar
     4    15    14 1
     5    15    16 2
     6    14    13 2
     7    26    21 1
     8    21    20 ar
     9    29    28 ar
    10    29    30 ar
    11    18    16 1
    12    18    19 ar
    13    16    17 1
    14    28    27 ar
    15    30    31 ar
    16    13    17 1
    17    13     9 1
    18    10    11 1
    19    10     9 1
    20    19    20 ar
    21    20    24 1
    22    27    11 1
    23    27    32 ar
    24    11    12 1
    25     9     8 1
    26     9     4 1
    27    31    32 ar
    28     8    12 1
    29     8     1 1
    30    24    25 3
    31     4     3 1
    32     1     7 2
    33     1     2 1
    34     3     2 1
    35     3     5 2
    36     2     6 1
    37     5    33 1
    38     6    34 1
    39     6    35 1
    40     6    36 1
    41     8    37 1
    42    10    38 1
    43    10    39 1
    44    12    40 1
    45    12    41 1
    46    14    42 1
    47    15    43 1
    48    19    44 1
    49    22    45 1
    50    23    46 1
    51    28    47 1
    52    29    48 1
    53    30    49 1
    54    31    50 1
    55    32    51 1
    56     4    52 1
@<TRIPOS>SUBSTRUCTURE
     1 10W         1 TEMP              0 ****  ****    0 ROOT
