@<TRIPOS>MOLECULE
10W
   52    56     1     0     0
SMALL
bcc


@<TRIPOS>ATOM
      1 C1           0.0000     0.0000     0.0000 c          1 10W       0.631500
      2 N1           1.3400     0.0000     0.0000 n          1 10W      -0.048300
      3 C2           2.0450     0.0000     1.1920 c2         1 10W       0.399800
      4 N2           1.3430     0.2940     2.3460 nu         1 10W      -0.506200
      5 N3           3.3200    -0.2670     1.2240 n2         1 10W      -0.761100
      6 C3           2.0650    -0.0000    -1.2720 c3         1 10W       0.059300
      7 O1          -0.5700    -0.0430    -1.0690 o          1 10W      -0.662500
      8 C4          -0.8320     0.0420     1.2410 c3         1 10W      -0.145700
      9 C5           0.0020    -0.2900     2.4960 c3         1 10W       0.224500
     10 C6          -0.7480     0.4900     3.6030 c3         1 10W       0.125800
     11 N4          -1.2330     1.7220     2.9480 nh         1 10W      -0.354000
     12 C7          -1.3270     1.4760     1.5040 c3         1 10W       0.142800
     13 C8           0.0650    -1.7710     2.7630 cc         1 10W      -0.018400
     14 C9           1.0800    -2.4020     3.3590 cd         1 10W      -0.092000
     15 C10          0.9170    -3.7650     3.5050 cd         1 10W      -0.119000
     16 C11         -0.2460    -4.2470     3.0220 cc         1 10W       0.072900
     17 S1          -1.1930    -2.9290     2.3460 ss         1 10W      -0.245800
     18 C12         -0.6610    -5.6660     3.0570 ca         1 10W      -0.012000
     19 C13          0.1780    -6.6240     3.6200 ca         1 10W      -0.045000
     20 C14         -0.2210    -7.9610     3.6490 ca         1 10W       0.009000
     21 C15         -1.4580    -8.3290     3.1100 ca         1 10W       0.135900
     22 C16         -2.2850    -7.3700     2.5510 ca         1 10W      -0.127000
     23 C17         -1.8970    -6.0460     2.5270 ca         1 10W      -0.052000
     24 C18          0.6360    -8.9520     4.2260 cg         1 10W       0.223800
     25 N5           1.3010    -9.7430     4.6980 n1         1 10W      -0.355800
     26 F1          -1.8470    -9.6230     3.1350 f          1 10W      -0.115900
     27 C19         -2.4650     2.1190     3.4730 ca         1 10W       0.015600
     28 C20         -2.8360     1.7210     4.7510 ca         1 10W      -0.150500
     29 C21         -4.0550     2.1150     5.2670 ca         1 10W      -0.068000
     30 C22         -4.9050     2.9030     4.5130 ca         1 10W      -0.127000
     31 C23         -4.5380     3.3000     3.2410 ca         1 10W      -0.068000
     32 C24         -3.3190     2.9160     2.7200 ca         1 10W      -0.150500
     33 H1           3.8090    -0.4770     0.3770 hn         1 10W       0.338400
     34 H3           1.3820     0.2400    -2.0780 h1         1 10W       0.026700
     35 H4           2.4950    -0.9800    -1.4430 h1         1 10W       0.026700
     36 H5           2.8560     0.7400    -1.2370 h1         1 10W       0.026700
     37 H6          -1.6720    -0.6370     1.1560 hc         1 10W       0.080700
     38 H7          -0.0710     0.7360     4.4110 h1         1 10W       0.042200
     39 H8          -1.5850    -0.0930     3.9700 h1         1 10W       0.042200
     40 H9          -0.7030     2.1820     0.9700 h1         1 10W       0.040200
     41 H10         -2.3580     1.5720     1.1830 h1         1 10W       0.040200
     42 H11          1.9660    -1.8820     3.7020 ha         1 10W       0.138000
     43 H12          1.6640    -4.3970     3.9700 ha         1 10W       0.130000
     44 H13          1.1350    -6.3330     4.0360 ha         1 10W       0.125000
     45 H14         -3.2430    -7.6590     2.1370 ha         1 10W       0.128000
     46 H15         -2.5490    -5.3000     2.0880 ha         1 10W       0.123000
     47 H16         -2.1700     1.1030     5.3420 ha         1 10W       0.118000
     48 H17         -4.3460     1.8060     6.2640 ha         1 10W       0.102500
     49 H18         -5.8620     3.2080     4.9200 ha         1 10W       0.105000
     50 H19         -5.2060     3.9190     2.6540 ha         1 10W       0.102500
     51 H20         -3.0320     3.2270     1.7230 ha         1 10W       0.118000
     52 H21          1.7340     0.8820     3.0540 hn         1 10W       0.325800
@<TRIPOS>BOND
     1     1     2 1   
     2     1     7 2   
     3     1     8 1   
     4     2     3 1   
     5     2     6 1   
     6     3     4 1   
     7     3     5 2   
     8     4     9 1   
     9     4    52 1   
    10     5    33 1   
    11     6    34 1   
    12     6    35 1   
    13     6    36 1   
    14     8     9 1   
    15     8    12 1   
    16     8    37 1   
    17     9    10 1   
    18     9    13 1   
    19    10    11 1   
    20    10    38 1   
    21    10    39 1   
    22    11    12 1   
    23    11    27 1   
    24    12    40 1   
    25    12    41 1   
    26    13    14 2   
    27    13    17 1   
    28    14    15 1   
    29    14    42 1   
    30    15    16 2   
    31    15    43 1   
    32    16    17 1   
    33    16    18 1   
    34    18    19 ar  
    35    18    23 ar  
    36    19    20 ar  
    37    19    44 1   
    38    20    21 ar  
    39    20    24 1   
    40    21    22 ar  
    41    21    26 1   
    42    22    23 ar  
    43    22    45 1   
    44    23    46 1   
    45    24    25 3   
    46    27    28 ar  
    47    27    32 ar  
    48    28    29 ar  
    49    28    47 1   
    50    29    30 ar  
    51    29    48 1   
    52    30    31 ar  
    53    30    49 1   
    54    31    32 ar  
    55    31    50 1   
    56    32    51 1   
@<TRIPOS>SUBSTRUCTURE
     1 10W         1 TEMP              0 ****  ****    0 ROOT
