@<TRIPOS>MOLECULE
10W
   52    56     1     0     0
SMALL
bcc


@<TRIPOS>ATOM
      1 C1           0.2090     0.4970    -0.2070 c          1 10W       0.715500
      2 N1           1.5930     0.6110    -0.3020 n          1 10W      -0.391300
      3 C2           2.4130     0.5730     0.8720 c2         1 10W       0.658800
      4 N2           1.9470    -0.2270     1.9710 nu         1 10W      -0.853200
      5 N3           3.5690     1.1870     0.8510 n2         1 10W      -0.850100
      6 C3           2.2070     0.9650    -1.5610 c3         1 10W       0.088300
      7 O1          -0.5090     0.6540    -1.2110 o          1 10W      -0.610500
      8 C4          -0.4030     0.1510     1.1280 c3         1 10W      -0.162700
      9 C5           0.5430    -0.5900     2.1160 c3         1 10W       0.299500
     10 C6          -0.0310    -0.1090     3.5080 c3         1 10W       0.161800
     11 N4          -0.5460     1.2390     3.3000 nh         1 10W      -0.631000
     12 C7          -0.8680     1.4150     1.8830 c3         1 10W       0.181800
     13 C8           0.3760    -2.0720     1.9980 cc         1 10W      -0.139400
     14 C9          -0.8250    -2.7530     2.1240 cd         1 10W      -0.157000
     15 C10         -0.6550    -4.1550     1.9600 cd         1 10W      -0.140000
     16 C11          0.6710    -4.4870     1.7160 cc         1 10W      -0.098100
     17 S1           1.6410    -3.1200     1.6920 ss         1 10W       0.134200
     18 C12          1.1810    -5.8220     1.5080 ca         1 10W      -0.016000
     19 C13          2.3220    -6.0300     0.7220 ca         1 10W      -0.072000
     20 C14          2.8270    -7.3190     0.5170 ca         1 10W      -0.044000
     21 C15          2.1720    -8.4250     1.1090 ca         1 10W       0.165900
     22 C16          1.0240    -8.2140     1.8970 ca         1 10W      -0.168000
     23 C17          0.5410    -6.9280     2.0910 ca         1 10W      -0.072000
     24 C18          3.9860    -7.5030    -0.2820 cg         1 10W       0.231800
     25 N5           4.9360    -7.6510    -0.9370 n1         1 10W      -0.342800
     26 F1           2.6350    -9.6810     0.9280 f          1 10W      -0.121900
     27 C19         -1.4760     1.7350     4.2410 ca         1 10W       0.132600
     28 C20         -1.6050     1.1570     5.5250 ca         1 10W      -0.175000
     29 C21         -2.4520     1.7250     6.4720 ca         1 10W      -0.099500
     30 C22         -3.1910     2.8670     6.1740 ca         1 10W      -0.159000
     31 C23         -3.0720     3.4490     4.9120 ca         1 10W      -0.099500
     32 C24         -2.2290     2.8990     3.9530 ca         1 10W      -0.175000
     33 H1           4.1200     1.1080     1.6780 hn         1 10W       0.402400
     34 H3           1.4790     0.7650    -2.3920 h1         1 10W       0.060033
     35 H4           2.4890     2.0520    -1.5690 h1         1 10W       0.060033
     36 H5           3.1300     0.3470    -1.7160 h1         1 10W       0.060033
     37 H6          -1.2930    -0.5060     0.9180 hc         1 10W       0.110700
     38 H7          -0.8260    -0.8340     3.8380 h1         1 10W       0.062700
     39 H8           0.7600    -0.0740     4.3050 h1         1 10W       0.062700
     40 H9          -1.9670     1.5750     1.7040 h1         1 10W       0.066700
     41 H10         -0.3170     2.3270     1.5210 h1         1 10W       0.066700
     42 H11         -1.7960    -2.2920     2.3200 ha         1 10W       0.156000
     43 H12         -1.4810    -4.8690     2.0110 ha         1 10W       0.157000
     44 H13          2.8300    -5.1710     0.2520 ha         1 10W       0.154000
     45 H14          0.5210    -9.0800     2.3540 ha         1 10W       0.158000
     46 H15         -0.3550    -6.7710     2.7130 ha         1 10W       0.148000
     47 H16         -1.0300     0.2600     5.8000 ha         1 10W       0.134000
     48 H17         -2.5350     1.2610     7.4670 ha         1 10W       0.133000
     49 H18         -3.8600     3.3080     6.9260 ha         1 10W       0.135000
     50 H19         -3.6470     4.3550     4.6690 ha         1 10W       0.133000
     51 H20         -2.1430     3.3910     2.9720 ha         1 10W       0.134000
     52 H21          2.3530     0.0530     2.8430 hn         1 10W       0.415800
@<TRIPOS>BOND
     1     1     2 1   
     2     1     7 2   
     3     1     8 1   
     4     2     3 1   
     5     2     6 1   
     6     3     4 1   
     7     3     5 2   
     8     4     9 1   
     9     4    52 1   
    10     5    33 1   
    11     6    34 1   
    12     6    35 1   
    13     6    36 1   
    14     8     9 1   
    15     8    12 1   
    16     8    37 1   
    17     9    10 1   
    18     9    13 1   
    19    10    11 1   
    20    10    38 1   
    21    10    39 1   
    22    11    12 1   
    23    11    27 1   
    24    12    40 1   
    25    12    41 1   
    26    13    14 2   
    27    13    17 1   
    28    14    15 1   
    29    14    42 1   
    30    15    16 2   
    31    15    43 1   
    32    16    17 1   
    33    16    18 1   
    34    18    19 ar  
    35    18    23 ar  
    36    19    20 ar  
    37    19    44 1   
    38    20    21 ar  
    39    20    24 1   
    40    21    22 ar  
    41    21    26 1   
    42    22    23 ar  
    43    22    45 1   
    44    23    46 1   
    45    24    25 3   
    46    27    28 ar  
    47    27    32 ar  
    48    28    29 ar  
    49    28    47 1   
    50    29    30 ar  
    51    29    48 1   
    52    30    31 ar  
    53    30    49 1   
    54    31    32 ar  
    55    31    50 1   
    56    32    51 1   
@<TRIPOS>SUBSTRUCTURE
     1 10W         1 TEMP              0 ****  ****    0 ROOT
