@<TRIPOS>MOLECULE
molecule
   50    50     1     0     0
SMALL
bcc


@<TRIPOS>ATOM
      1 CAA          0.0000     0.0000     0.0000 c3         1 10X      -0.050100
      2 CAH          1.5280     0.0000     0.0000 c3         1 10X      -0.062200
      3 CAD          2.0210     0.0000     1.3000 c2         1 10X      -0.188200
      4 CAF          2.9330    -0.9690     1.7000 c2         1 10X      -0.096200
      5 CAO          3.3460    -1.9600     0.8190 c3         1 10X      -0.034200
      6 CAT          2.4660    -3.1880     0.9970 cx         1 10X       0.060100
      7 OAR          3.1420    -4.3560     1.5360 op         1 10X      -0.453600
      8 CAU          2.7980    -4.3550     0.1240 cx         1 10X       0.099100
      9 CAP          1.5930    -5.2040    -0.2490 c3         1 10X      -0.155200
     10 CAG          0.9220    -4.6280    -1.3180 c2         1 10X       0.144800
     11 CAE          1.0960    -5.1490    -2.5910 c2         1 10X      -0.462200
     12 CAI          1.9190    -6.2520    -2.7850 c3         1 10X      -0.021200
     13 CAJ          3.0310    -5.9410    -3.7860 c3         1 10X      -0.068400
     14 CAK          3.6670    -7.2350    -4.2970 c3         1 10X      -0.071400
     15 CAL          4.3240    -8.0100    -3.1550 c3         1 10X      -0.071400
     16 CAM          3.6970    -9.3960    -3.0080 c3         1 10X      -0.097400
     17 CAN          4.7790   -10.4220    -2.6580 c3         1 10X      -0.047400
     18 CAQ          4.1710   -11.8100    -2.4700 c3         1 10X      -0.189400
     19 CAS          4.6230   -12.4330    -1.1500 c          1 10X       0.906600
     20 OAC          3.8120   -12.3610    -0.1910 o          1 10X      -0.858800
     21 OAB          5.7630   -12.9730    -1.1290 o          1 10X      -0.858800
     22 H1          -0.3610    -0.4080     0.9360 hc         1 10X       0.033367
     23 H2          -0.3610     1.0150    -0.1150 hc         1 10X       0.033367
     24 H3          -0.3610    -0.6070    -0.8210 hc         1 10X       0.033367
     25 H4           1.8850     0.8830    -0.5160 hc         1 10X       0.035200
     26 H5           1.8850    -0.8830    -0.5170 hc         1 10X       0.035200
     27 H6           2.1940    -0.6620     0.4600 ha         1 10X      -0.018000
     28 H7           2.6720    -1.1680     0.6670 ha         1 10X       0.171000
     29 H8           4.3770    -2.2210     1.0260 hc         1 10X       0.060700
     30 H9           3.2610    -1.5990    -0.1990 hc         1 10X       0.060700
     31 H10          1.4240    -3.0840     1.2710 h1         1 10X       0.114700
     32 H11          3.6140    -4.2030    -0.5720 h1         1 10X       0.072700
     33 H12          0.9240    -5.2720     0.6010 hc         1 10X       0.028200
     34 H13          1.9250    -6.1980    -0.5250 hc         1 10X       0.028200
     35 H14          1.5920    -5.4760    -1.2480 ha         1 10X       0.193000
     36 H15          1.3670    -5.7040    -3.4810 ha         1 10X       0.161000
     37 H16          2.3630    -6.5340    -1.8380 hc         1 10X       0.089700
     38 H17          1.3250    -7.0770    -3.1580 hc         1 10X       0.089700
     39 H18          3.7900    -5.3360    -3.3030 hc         1 10X       0.024700
     40 H19          2.6160    -5.3920    -4.6230 hc         1 10X       0.024700
     41 H20          2.9020    -7.8530    -4.7520 hc         1 10X       0.026700
     42 H21          4.4170    -6.9940    -5.0410 hc         1 10X       0.026700
     43 H22          5.3830    -8.1180    -3.3600 hc         1 10X       0.027700
     44 H23          4.1950    -7.4600    -2.2310 hc         1 10X       0.027700
     45 H24          2.9550    -9.3730    -2.2190 hc         1 10X       0.058700
     46 H25          3.2220    -9.6770    -3.9400 hc         1 10X       0.058700
     47 H26          5.2720   -10.1220    -1.7410 hc         1 10X       0.015200
     48 H27          5.5080   -10.4580    -3.4590 hc         1 10X       0.015200
     49 H28          4.4820   -12.4480    -3.2890 hc         1 10X       0.025700
     50 H29          3.0910   -11.7290    -2.4740 hc         1 10X       0.025700
@<TRIPOS>BOND
     1     3     2 1   
     2     3     4 2   
     3     2     1 1   
     4     4     5 1   
     5     5     6 1   
     6     6     7 1   
     7     6     8 1   
     8     7     8 1   
     9     8     9 1   
    10    10     9 1   
    11    10    11 2   
    12    11    12 1   
    13    13    12 1   
    14    13    14 1   
    15    14    15 1   
    16    15    16 1   
    17    16    17 1   
    18    17    18 1   
    19    20    19 1   
    20    18    19 1   
    21    19    21 1   
    22     1    22 1   
    23     1    23 1   
    24     1    24 1   
    25     2    25 1   
    26     2    26 1   
    27     3    27 1   
    28     4    28 1   
    29     5    29 1   
    30     5    30 1   
    31     6    31 1   
    32     8    32 1   
    33     9    33 1   
    34     9    34 1   
    35    10    35 1   
    36    11    36 1   
    37    12    37 1   
    38    12    38 1   
    39    13    39 1   
    40    13    40 1   
    41    14    41 1   
    42    14    42 1   
    43    15    43 1   
    44    15    44 1   
    45    16    45 1   
    46    16    46 1   
    47    17    47 1   
    48    17    48 1   
    49    18    49 1   
    50    18    50 1   
@<TRIPOS>SUBSTRUCTURE
     1 10X         1 TEMP              0 ****  ****    0 ROOT
