@<TRIPOS>MOLECULE
10X
   50    50     1     0     0
SMALL
bcc


@<TRIPOS>ATOM
      1 CAA         0.0490   -0.3700    2.0800 c3        1 10X     -0.090100
      2 CAH         1.1270   -0.8650    1.1490 c3        1 10X     -0.051200
      3 CAD         2.4120   -0.1520    1.3390 c2        1 10X     -0.171200
      4 CAF         3.4880   -0.3400    0.5670 c2        1 10X     -0.172200
      5 CAO         3.5190   -1.2810   -0.5770 c3        1 10X     -0.044200
      6 CAT         4.8840   -1.3790   -1.1910 cx        1 10X      0.062100
      7 OAR         5.0300   -2.3820   -2.2110 os        1 10X     -0.412600
      8 CAU         5.7530   -2.5730   -0.9800 cx        1 10X      0.075100
      9 CAP         7.2460   -2.4510   -1.0540 c3        1 10X     -0.043200
     10 CAG         7.9070   -3.7740   -1.1500 c2        1 10X     -0.193200
     11 CAE         9.1080   -4.0580   -0.6360 c2        1 10X     -0.150200
     12 CAI         9.9440   -3.1030    0.1280 c3        1 10X     -0.055200
     13 CAJ        11.2730   -3.7030    0.5410 c3        1 10X     -0.078400
     14 CAK        12.1020   -2.7080    1.3260 c3        1 10X     -0.079400
     15 CAL        13.4250   -3.3050    1.7530 c3        1 10X     -0.078400
     16 CAM        14.2540   -2.3120    2.5400 c3        1 10X     -0.078400
     17 CAN        15.5690   -2.9160    2.9850 c3        1 10X     -0.065400
     18 CAQ        16.4100   -1.9280    3.7560 c3        1 10X     -0.194400
     19 CAS        17.6470   -2.6060    4.3710 c         1 10X      0.907600
     20 OAC        17.4960   -3.7090    4.9720 o         1 10X     -0.852800
     21 OAB        18.7590   -2.0130    4.2600 o         1 10X     -0.852800
     22 H1          0.3510   -0.5140    3.1460 hc        1 10X      0.033367
     23 H2         -0.1470    0.7170    1.9150 hc        1 10X      0.033367
     24 H3         -0.9000   -0.9320    1.9040 hc        1 10X      0.033367
     25 H4          1.2890   -1.9670    1.3130 hc        1 10X      0.047200
     26 H5          0.7880   -0.7460    0.0830 hc        1 10X      0.047200
     27 H6          2.4470    0.5630    2.1760 ha        1 10X      0.124000
     28 H7          4.4180    0.2190    0.7630 ha        1 10X      0.127000
     29 H8          2.7950   -0.9380   -1.3680 hc        1 10X      0.061200
     30 H9          3.1730   -2.2990   -0.2460 hc        1 10X      0.061200
     31 H10         5.3460   -0.4050   -1.4520 h1        1 10X      0.088700
     32 H11         5.3810   -3.4250   -0.3750 h1        1 10X      0.091700
     33 H12         7.5330   -1.8330   -1.9500 hc        1 10X      0.062200
     34 H13         7.5970   -1.8990   -0.1390 hc        1 10X      0.062200
     35 H14         7.3430   -4.5380   -1.7100 ha        1 10X      0.123000
     36 H15         9.5370   -5.0660   -0.7700 ha        1 10X      0.124000
     37 H16        10.1270   -2.1840   -0.4930 hc        1 10X      0.047200
     38 H17         9.3870   -2.7680    1.0460 hc        1 10X      0.047200
     39 H18        11.0960   -4.6180    1.1650 hc        1 10X      0.040700
     40 H19        11.8400   -4.0280   -0.3700 hc        1 10X      0.040700
     41 H20        11.5310   -2.3750    2.2330 hc        1 10X      0.034200
     42 H21        12.2860   -1.7950    0.6990 hc        1 10X      0.034200
     43 H22        13.9980   -3.6370    0.8470 hc        1 10X      0.037700
     44 H23        13.2420   -4.2180    2.3800 hc        1 10X      0.037700
     45 H24        13.6750   -1.9710    3.4380 hc        1 10X      0.025700
     46 H25        14.4490   -1.4050    1.9100 hc        1 10X      0.025700
     47 H26        16.1400   -3.2720    2.0870 hc        1 10X      0.044200
     48 H27        15.3830   -3.8130    3.6340 hc        1 10X      0.044200
     49 H28        15.8110   -1.4880    4.5930 hc        1 10X      0.018700
     50 H29        16.7380   -1.0910    3.0900 hc        1 10X      0.018700
@<TRIPOS>BOND
     1    1    2 1
     2    1   22 1
     3    1   23 1
     4    1   24 1
     5    2    3 1
     6    2   25 1
     7    2   26 1
     8    3    4 2
     9    3   27 1
    10    4    5 1
    11    4   28 1
    12    5    6 1
    13    5   29 1
    14    5   30 1
    15    6    7 1
    16    6    8 1
    17    6   31 1
    18    7    8 1
    19    8    9 1
    20    8   32 1
    21    9   10 1
    22    9   33 1
    23    9   34 1
    24   10   11 2
    25   10   35 1
    26   11   12 1
    27   11   36 1
    28   12   13 1
    29   12   37 1
    30   12   38 1
    31   13   14 1
    32   13   39 1
    33   13   40 1
    34   14   15 1
    35   14   41 1
    36   14   42 1
    37   15   16 1
    38   15   43 1
    39   15   44 1
    40   16   17 1
    41   16   45 1
    42   16   46 1
    43   17   18 1
    44   17   47 1
    45   17   48 1
    46   18   19 1
    47   18   49 1
    48   18   50 1
    49   19   20 1
    50   19   21 1
@<TRIPOS>SUBSTRUCTURE
     1 10X         1 TEMP              0 ****  ****    0 ROOT
