@<TRIPOS>MOLECULE
molecule
   50    50     1     0     0
SMALL
bcc


@<TRIPOS>ATOM
      1 O1           0.0000     0.0000     0.0000 o          1 10Y      -0.854800
      2 C1           1.2600     0.0000     0.0000 c          1 10Y       0.906600
      3 O2           2.0110     0.0000     1.0220 o          1 10Y      -0.854800
      4 C2           1.9450     0.0070    -1.3720 c3         1 10Y      -0.178400
      5 C3           2.6700     1.3410    -1.5630 c3         1 10Y      -0.069400
      6 C4           2.6070     1.7460    -3.0410 c3         1 10Y      -0.079400
      7 C5           3.4330     3.0210    -3.2250 c3         1 10Y      -0.081400
      8 C6           3.8470     3.1520    -4.6900 c3         1 10Y      -0.076400
      9 C7           2.9080     4.1220    -5.4090 c3         1 10Y      -0.084400
     10 C8           1.6990     3.3480    -5.9380 c3         1 10Y      -0.001200
     11 C9           1.1830     4.0100    -7.2160 c2         1 10Y      -0.473200
     12 C10          0.5280     5.1970    -7.1460 c2         1 10Y       0.137800
     13 C11          0.3960     5.8820    -5.7900 c3         1 10Y      -0.147200
     14 C12         -1.0880     6.1070    -5.5140 cx         1 10Y       0.078100
     15 O3          -1.3500     6.9010    -4.3310 op         1 10Y      -0.449600
     16 C13         -1.5490     7.5320    -5.6120 cx         1 10Y       0.084100
     17 C14         -0.5020     8.5770    -5.9810 c3         1 10Y       0.018800
     18 C15         -1.2580     9.8070    -6.4790 c2         1 10Y      -0.492200
     19 C16         -1.2540    10.1030    -7.8030 c2         1 10Y       0.051800
     20 C17         -0.3880     9.2700    -8.7540 c3         1 10Y      -0.131200
     21 C18         -1.2410     8.7970    -9.9310 c3         1 10Y      -0.101100
     22 H2           2.6600    -0.8050    -1.4240 hc         1 10Y       0.027200
     23 H3           1.2000    -0.1150    -2.1490 hc         1 10Y       0.027200
     24 H4           3.7050     1.2360    -1.2610 hc         1 10Y       0.047700
     25 H5           2.1930     2.1030    -0.9580 hc         1 10Y       0.047700
     26 H6           3.0160     0.9530    -3.6550 hc         1 10Y       0.028200
     27 H7           1.5780     1.9340    -3.3250 hc         1 10Y       0.028200
     28 H8           2.8400     3.8800    -2.9380 hc         1 10Y       0.040200
     29 H9           4.3190     2.9690    -2.6030 hc         1 10Y       0.040200
     30 H10          4.8620     3.5260    -4.7460 hc         1 10Y       0.033700
     31 H11          3.7950     2.1810    -5.1670 hc         1 10Y       0.033700
     32 H12          2.5760     4.8850    -4.7160 hc         1 10Y       0.038200
     33 H13          3.4310     4.5860    -6.2370 hc         1 10Y       0.038200
     34 H14          1.9900     2.3270    -6.1530 hc         1 10Y       0.062700
     35 H15          0.9150     3.3490    -5.1900 hc         1 10Y       0.062700
     36 H16          1.1950     4.3370    -6.1830 ha         1 10Y       0.190000
     37 H17          0.8600     4.9280    -6.1510 ha         1 10Y       0.161000
     38 H18          0.8190     5.2510    -5.0180 hc         1 10Y       0.032200
     39 H19          0.9130     6.8340    -5.8090 hc         1 10Y       0.032200
     40 H20         -1.8230     5.3440    -5.7380 h1         1 10Y       0.060700
     41 H21         -2.5860     7.6780    -5.8910 h1         1 10Y       0.072700
     42 H22          0.1410     8.1950    -6.7650 hc         1 10Y       0.071700
     43 H23          0.0880     8.8330    -5.1100 hc         1 10Y       0.071700
     44 H24         -0.5880     9.1140    -6.9720 ha         1 10Y       0.311000
     45 H25         -0.5950     9.2590    -7.6410 ha         1 10Y       0.076000
     46 H26          0.0070     8.4100    -8.2240 hc         1 10Y       0.031200
     47 H27          0.4320     9.8760    -9.1210 hc         1 10Y       0.031200
     48 H28         -0.6560     8.1340   -10.5580 hc         1 10Y       0.034367
     49 H29         -2.1100     8.2680    -9.5590 hc         1 10Y       0.034367
     50 H30         -1.5610     9.6530   -10.5130 hc         1 10Y       0.034367
@<TRIPOS>BOND
     1    19    18 2   
     2    19    20 1   
     3    18    17 1   
     4    21    20 1   
     5    17    16 1   
     6    16    15 1   
     7    16    14 1   
     8    15    14 1   
     9    14    13 1   
    10    13    12 1   
    11    12    11 2   
    12    11    10 1   
    13     9    10 1   
    14     9     8 1   
    15     8     7 1   
    16     7     6 1   
    17     6     5 1   
    18     5     4 1   
    19     1     2 1   
    20     4     2 1   
    21     2     3 1   
    22     4    22 1   
    23     4    23 1   
    24     5    24 1   
    25     5    25 1   
    26     6    26 1   
    27     6    27 1   
    28     7    28 1   
    29     7    29 1   
    30     8    30 1   
    31     8    31 1   
    32     9    32 1   
    33     9    33 1   
    34    10    34 1   
    35    10    35 1   
    36    11    36 1   
    37    12    37 1   
    38    13    38 1   
    39    13    39 1   
    40    14    40 1   
    41    16    41 1   
    42    17    42 1   
    43    17    43 1   
    44    18    44 1   
    45    19    45 1   
    46    20    46 1   
    47    20    47 1   
    48    21    48 1   
    49    21    49 1   
    50    21    50 1   
@<TRIPOS>SUBSTRUCTURE
     1 10Y         1 TEMP              0 ****  ****    0 ROOT
