@<TRIPOS>MOLECULE
10Y
   50    50     1     0     0
SMALL
bcc


@<TRIPOS>ATOM
      1 O1          1.1740   -2.1330    0.1300 o         1 10Y     -0.852800
      2 C1          1.0900   -0.8770    0.2650 c         1 10Y      0.907600
      3 O2          0.7580   -0.3060    1.3430 o         1 10Y     -0.852800
      4 C2          1.4310    0.0150   -0.9420 c3        1 10Y     -0.194400
      5 C3          0.7800   -0.4950   -2.2040 c3        1 10Y     -0.065400
      6 C4          1.2620    0.2530   -3.4300 c3        1 10Y     -0.078400
      7 C5          0.5930   -0.2570   -4.6880 c3        1 10Y     -0.079400
      8 C6          1.0900    0.4760   -5.9160 c3        1 10Y     -0.079400
      9 C7          0.4230   -0.0370   -7.1740 c3        1 10Y     -0.078400
     10 C8          0.9370    0.6890   -8.4010 c3        1 10Y     -0.055200
     11 C9          0.3080    0.1990   -9.6500 c2        1 10Y     -0.148200
     12 C10         0.5740    0.6690  -10.8730 c2        1 10Y     -0.194200
     13 C11         1.5200    1.7730  -11.1640 c3        1 10Y     -0.043200
     14 C12         2.2720    1.5500  -12.4450 cx        1 10Y      0.073100
     15 O3          2.1060    2.5530  -13.4640 os        1 10Y     -0.413600
     16 C13         3.4000    2.4420  -12.8450 cx        1 10Y      0.063100
     17 C14         3.8320    3.5880  -11.9790 c3        1 10Y     -0.045200
     18 C15         4.7010    4.5450  -12.7040 c2        1 10Y     -0.172200
     19 C16         5.5100    5.4220  -12.0990 c2        1 10Y     -0.170200
     20 C17         5.6590    5.5380  -10.6290 c3        1 10Y     -0.052200
     21 C18         6.5110    6.7150  -10.2260 c3        1 10Y     -0.090100
     22 H2          2.5450    0.0180   -1.0600 hc        1 10Y      0.018700
     23 H3          1.1050    1.0640   -0.7310 hc        1 10Y      0.018700
     24 H4          1.0050   -1.5910   -2.3060 hc        1 10Y      0.044200
     25 H5         -0.3330   -0.3940   -2.1170 hc        1 10Y      0.044200
     26 H6          1.0520    1.3480   -3.3100 hc        1 10Y      0.025700
     27 H7          2.3740    0.1390   -3.5250 hc        1 10Y      0.025700
     28 H8         -0.5190   -0.1300   -4.5990 hc        1 10Y      0.037700
     29 H9          0.7910   -1.3550   -4.7990 hc        1 10Y      0.037700
     30 H10         0.8890    1.5740   -5.8050 hc        1 10Y      0.034200
     31 H11         2.2020    0.3510   -6.0020 hc        1 10Y      0.034200
     32 H12        -0.6870    0.0980   -7.0930 hc        1 10Y      0.040700
     33 H13         0.6170   -1.1370   -7.2800 hc        1 10Y      0.040700
     34 H14         2.0530    0.5620   -8.4670 hc        1 10Y      0.047700
     35 H15         0.7420    1.7910   -8.2900 hc        1 10Y      0.047700
     36 H16        -0.4280   -0.6130   -9.5250 ha        1 10Y      0.124000
     37 H17         0.0600    0.2490  -11.7540 ha        1 10Y      0.120000
     38 H18         0.9440    2.7380  -11.2310 hc        1 10Y      0.063700
     39 H19         2.2650    1.8870  -10.3290 hc        1 10Y      0.063700
     40 H20         2.2390    0.5120  -12.8350 h1        1 10Y      0.089700
     41 H21         4.1850    2.0550  -13.5250 h1        1 10Y      0.085700
     42 H22         4.3740    3.1690  -11.0860 hc        1 10Y      0.064700
     43 H23         2.9260    4.1340  -11.5920 hc        1 10Y      0.064700
     44 H24         4.6340    4.5120  -13.8030 ha        1 10Y      0.126000
     45 H25         6.1200    6.1170  -12.6990 ha        1 10Y      0.121000
     46 H26         4.6430    5.6300  -10.1560 hc        1 10Y      0.049700
     47 H27         6.1160    4.5900  -10.2290 hc        1 10Y      0.049700
     48 H28         7.5390    6.6240  -10.6550 hc        1 10Y      0.034033
     49 H29         6.5950    6.7660   -9.1140 hc        1 10Y      0.034033
     50 H30         6.0620    7.6700  -10.5910 hc        1 10Y      0.034033
@<TRIPOS>BOND
     1    1    2 1   
     2    2    3 1   
     3    2    4 1   
     4    4    5 1   
     5    4   22 1   
     6    4   23 1   
     7    5    6 1   
     8    5   24 1   
     9    5   25 1   
    10    6    7 1   
    11    6   26 1   
    12    6   27 1   
    13    7    8 1   
    14    7   28 1   
    15    7   29 1   
    16    8    9 1   
    17    8   30 1   
    18    8   31 1   
    19    9   10 1   
    20    9   32 1   
    21    9   33 1   
    22   10   11 1   
    23   10   34 1   
    24   10   35 1   
    25   11   12 2   
    26   11   36 1   
    27   12   13 1   
    28   12   37 1   
    29   13   14 1   
    30   13   38 1   
    31   13   39 1   
    32   14   15 1   
    33   14   16 1   
    34   14   40 1   
    35   15   16 1   
    36   16   17 1   
    37   16   41 1   
    38   17   18 1   
    39   17   42 1   
    40   17   43 1   
    41   18   19 2   
    42   18   44 1   
    43   19   20 1   
    44   19   45 1   
    45   20   21 1   
    46   20   46 1   
    47   20   47 1   
    48   21   48 1   
    49   21   49 1   
    50   21   50 1   
@<TRIPOS>SUBSTRUCTURE
     1 10Y         1 TEMP              0 ****  ****    0 ROOT
