@<TRIPOS>MOLECULE
molecule
   50    50     1     0     0
SMALL
bcc


@<TRIPOS>ATOM
      1 O1           0.0000     0.0000     0.0000 o          1 10Y      -0.855800
      2 C1           1.2080     0.0000     0.0000 c          1 10Y       0.891600
      3 O2           1.8790     0.0000     1.1620 o          1 10Y      -0.855800
      4 C2           1.9620    -0.0090    -1.3050 c3         1 10Y      -0.183400
      5 C3           0.9680    -0.0150    -2.4690 c3         1 10Y      -0.063400
      6 C4           1.7330    -0.0230    -3.7930 c3         1 10Y      -0.087400
      7 C5           0.7390    -0.0290    -4.9560 c3         1 10Y      -0.079400
      8 C6           1.5040    -0.0370    -6.2810 c3         1 10Y      -0.088400
      9 C7           0.5110    -0.0440    -7.4440 c3         1 10Y      -0.035400
     10 C8           1.2760    -0.0510    -8.7690 c3         1 10Y      -0.115200
     11 C9           0.2970    -0.0580    -9.9140 c2         1 10Y      -0.365200
     12 C10          0.3980     0.8360   -10.8680 c2         1 10Y      -0.302200
     13 C11          1.5870     1.7600   -10.9110 c3         1 10Y      -0.163200
     14 C12          2.2490     1.6750   -12.2880 cx         1 10Y       0.098100
     15 O3           2.2790     2.8600   -13.0860 op         1 10Y      -0.378600
     16 C13          3.5320     2.4770   -12.5140 cx         1 10Y       0.080100
     17 C14          4.0660     3.3110   -11.3460 c3         1 10Y      -0.171200
     18 C15          5.3580     3.9720   -11.7520 c2         1 10Y      -0.287200
     19 C16          5.5080     5.2640   -11.6000 c2         1 10Y      -0.392200
     20 C17          4.4590     6.0640   -10.8690 c3         1 10Y      -0.108200
     21 C18          5.1220     6.8650    -9.7460 c3         1 10Y      -0.045100
     22 H2           2.5860     0.8750    -1.3680 hc         1 10Y       0.026700
     23 H3           2.5840    -0.8940    -1.3570 hc         1 10Y       0.026700
     24 H4           0.3450     0.8700    -2.4160 hc         1 10Y       0.046700
     25 H5           0.3450    -0.8990    -2.4060 hc         1 10Y       0.046700
     26 H6           2.3560    -0.9080    -3.8460 hc         1 10Y       0.029200
     27 H7           2.3560     0.8610    -3.8560 hc         1 10Y       0.029200
     28 H8           0.1160     0.8560    -4.9040 hc         1 10Y       0.043700
     29 H9           0.1160    -0.9130    -4.8940 hc         1 10Y       0.043700
     30 H10          2.1270    -0.9220    -6.3330 hc         1 10Y       0.036200
     31 H11          2.1270     0.8470    -6.3430 hc         1 10Y       0.036200
     32 H12         -0.1120     0.8410    -7.3920 hc         1 10Y       0.061700
     33 H13         -0.1120    -0.9280    -7.3820 hc         1 10Y       0.061700
     34 H14          1.8990     0.8330    -8.8320 hc         1 10Y       0.031200
     35 H15          1.8990    -0.9360    -8.8220 hc         1 10Y       0.031200
     36 H16          1.2600    -0.5460   -10.0010 ha         1 10Y       0.331000
     37 H17          0.4190     1.7460   -10.2800 ha         1 10Y       0.321000
     38 H18          1.2610     2.7760   -10.7290 hc         1 10Y       0.046200
     39 H19          2.2990     1.4670   -10.1490 hc         1 10Y       0.046200
     40 H20          2.1850     0.7500   -12.8490 h1         1 10Y       0.109700
     41 H21          4.2330     2.0300   -13.2080 h1         1 10Y       0.116700
     42 H22          3.3390     4.0690   -11.0820 hc         1 10Y       0.049200
     43 H23          4.2420     2.6670   -10.4930 hc         1 10Y       0.049200
     44 H24          5.1820     3.6750   -10.7250 ha         1 10Y       0.331000
     45 H25          4.6220     5.6230   -12.1110 ha         1 10Y       0.338000
     46 H26          3.7220     5.3920   -10.4470 hc         1 10Y       0.033700
     47 H27          3.9750     6.7430   -11.5600 hc         1 10Y       0.033700
     48 H28          4.3740     7.4630    -9.2390 hc         1 10Y       0.049367
     49 H29          5.5800     6.1840    -9.0390 hc         1 10Y       0.049367
     50 H30          5.8800     7.5150   -10.1650 hc         1 10Y       0.049367
@<TRIPOS>BOND
     1    19    18 2   
     2    19    20 1   
     3    18    17 1   
     4    21    20 1   
     5    17    16 1   
     6    16    15 1   
     7    16    14 1   
     8    15    14 1   
     9    14    13 1   
    10    13    12 1   
    11    12    11 2   
    12    11    10 1   
    13     9    10 1   
    14     9     8 1   
    15     8     7 1   
    16     7     6 1   
    17     6     5 1   
    18     5     4 1   
    19     1     2 1   
    20     4     2 1   
    21     2     3 1   
    22     4    22 1   
    23     4    23 1   
    24     5    24 1   
    25     5    25 1   
    26     6    26 1   
    27     6    27 1   
    28     7    28 1   
    29     7    29 1   
    30     8    30 1   
    31     8    31 1   
    32     9    32 1   
    33     9    33 1   
    34    10    34 1   
    35    10    35 1   
    36    11    36 1   
    37    12    37 1   
    38    13    38 1   
    39    13    39 1   
    40    14    40 1   
    41    16    41 1   
    42    17    42 1   
    43    17    43 1   
    44    18    44 1   
    45    19    45 1   
    46    20    46 1   
    47    20    47 1   
    48    21    48 1   
    49    21    49 1   
    50    21    50 1   
@<TRIPOS>SUBSTRUCTURE
     1 10Y         1 TEMP              0 ****  ****    0 ROOT
