@<TRIPOS>MOLECULE
10Z
   53    56     1     0     0
SMALL
bcc


@<TRIPOS>ATOM
      1 C29          0.6050    -1.5120     0.7680 c3         1 10Z       0.118700
      2 O28          1.8760    -1.2150     1.3400 os         1 10Z      -0.460600
      3 C27          1.8520    -0.0800     2.1960 c3         1 10Z       0.102400
      4 C26          3.3130     0.3020     2.4580 c3         1 10Z       0.098800
      5 N25          4.1190    -0.8450     2.9560 ny         1 10Z      -0.765000
      6 C24          5.5710    -0.4900     3.1370 c3         1 10Z       0.192100
      7 C18          6.3240    -1.6440     3.6840 ca         1 10Z      -0.254300
      8 C20          6.4680    -1.8040     5.0680 ca         1 10Z      -0.060500
      9 C22          7.1890    -2.8650     5.5940 ca         1 10Z      -0.177500
     10 C23          7.7900    -3.8210     4.7360 ca         1 10Z       0.248600
     11 C21          7.6550    -3.6320     3.3290 ca         1 10Z      -0.177500
     12 C19          6.9350    -2.5640     2.8230 ca         1 10Z      -0.060500
     13 N17          8.5500    -4.8920     5.1750 nu         1 10Z      -0.730300
     14 C8           8.4870    -5.5270     6.4360 ca         1 10Z       0.871900
     15 N10          7.4970    -5.2310     7.3100 nb         1 10Z      -0.741000
     16 C12          7.5040    -5.9080     8.5140 ca         1 10Z       0.447600
     17 C14          6.4940    -5.6530     9.4930 ca         1 10Z      -0.190300
     18 C13          6.5050    -6.3320    10.6870 ca         1 10Z      -0.077000
     19 C15          7.5080    -7.2920    10.9880 cp         1 10Z      -0.042000
     20 C16          8.4970    -7.5550    10.0570 ca         1 10Z      -0.065000
     21 C11          8.5070    -6.8770     8.8220 ca         1 10Z      -0.293600
     22 C9           9.4980    -7.1090     7.8070 ca         1 10Z       0.496200
     23 N7           9.5180    -6.4810     6.6510 nb         1 10Z      -0.717000
     24 C2           7.4820    -7.9870    12.2730 cp         1 10Z      -0.013000
     25 C4           6.2710    -8.4290    12.8280 ca         1 10Z      -0.236300
     26 C6           6.3010    -9.0960    14.0660 ca         1 10Z       0.400200
     27 N5           7.4320    -9.3340    14.7570 nb         1 10Z      -0.650000
     28 C3           8.5880    -8.9040    14.2150 ca         1 10Z       0.400200
     29 C1           8.6660    -8.2310    12.9830 ca         1 10Z      -0.236300
     30 H1          -0.1400    -1.7300     1.5720 h1         1 10Z       0.057367
     31 H2           0.2590    -0.6610     0.1320 h1         1 10Z       0.057367
     32 H3           0.7980    -2.4220     0.1450 h1         1 10Z       0.057367
     33 H4           1.3160    -0.3400     3.1480 h1         1 10Z       0.071700
     34 H5           1.3390     0.7890     1.7020 h1         1 10Z       0.071700
     35 H6           3.7830     0.6600     1.4970 hx         1 10Z       0.109200
     36 H7           3.3490     1.1310     3.2190 hx         1 10Z       0.109200
     37 H8           4.0370    -1.6220     2.2850 hn         1 10Z       0.456300
     38 H10          5.9700    -0.1820     2.1270 hx         1 10Z       0.100700
     39 H11          5.6170     0.3950     3.8340 hx         1 10Z       0.100700
     40 H12          6.0230    -1.0690     5.7560 ha         1 10Z       0.136000
     41 H13          7.2950    -2.9360     6.6880 ha         1 10Z       0.168500
     42 H14          8.1290    -4.3380     2.6270 ha         1 10Z       0.168500
     43 H15          6.8530    -2.4390     1.7310 ha         1 10Z       0.136000
     44 H16          9.1410    -5.3330     4.4980 hn         1 10Z       0.470800
     45 H17          5.7110    -4.9100     9.2780 ha         1 10Z       0.151000
     46 H18          5.7260    -6.1300    11.4410 ha         1 10Z       0.150000
     47 H19          9.2830    -8.2990    10.2670 ha         1 10Z       0.150000
     48 H20         10.3020    -7.8530     7.9800 h4         1 10Z       0.044100
     49 H21          5.3180    -8.2710    12.3070 ha         1 10Z       0.145000
     50 H22          5.3680    -9.4610    14.5310 h4         1 10Z       0.030600
     51 H23          9.5010    -9.1110    14.8030 h4         1 10Z       0.030600
     52 H24          9.6380    -7.8980    12.5940 ha         1 10Z       0.145000
     53 H252         3.7390    -1.1750     3.8500 hn         1 10Z       0.456300
@<TRIPOS>BOND
     1     1     2 1   
     2     1    30 1   
     3     1    31 1   
     4     1    32 1   
     5     2     3 1   
     6     3     4 1   
     7     3    33 1   
     8     3    34 1   
     9     4     5 1   
    10     4    35 1   
    11     4    36 1   
    12     5     6 1   
    13     5    37 1   
    14     5    53 1   
    15     6     7 1   
    16     6    38 1   
    17     6    39 1   
    18     7     8 ar  
    19     7    12 ar  
    20     8     9 ar  
    21     8    40 1   
    22     9    10 ar  
    23     9    41 1   
    24    10    11 ar  
    25    10    13 1   
    26    11    12 ar  
    27    11    42 1   
    28    12    43 1   
    29    13    14 1   
    30    13    44 1   
    31    14    15 ar  
    32    14    23 ar  
    33    15    16 ar  
    34    16    17 ar  
    35    16    21 ar  
    36    17    18 ar  
    37    17    45 1   
    38    18    19 ar  
    39    18    46 1   
    40    19    20 ar  
    41    19    24 1   
    42    20    21 ar  
    43    20    47 1   
    44    21    22 ar  
    45    22    23 ar  
    46    22    48 1   
    47    24    25 ar  
    48    24    29 ar  
    49    25    26 ar  
    50    25    49 1   
    51    26    27 ar  
    52    26    50 1   
    53    27    28 ar  
    54    28    29 ar  
    55    28    51 1   
    56    29    52 1   
@<TRIPOS>SUBSTRUCTURE
     1 10Z         1 TEMP              0 ****  ****    0 ROOT
