@<TRIPOS>MOLECULE
10Z
   52    55     1     0     0
SMALL
bcc


@<TRIPOS>ATOM
      1 C29          0.0000     0.0000     0.0000 c3         1 10Z       0.250700
      2 O28          1.4290     0.0000     0.0000 os         1 10Z      -0.400600
      3 C27          2.0110     0.0000     1.3040 c3         1 10Z       0.213400
      4 C26          3.5360     0.0010     1.1830 c3         1 10Z       0.137800
      5 N25          3.9780     1.2550     0.5610 n7         1 10Z      -0.569200
      6 C24          5.4400     1.2920     0.4280 c3         1 10Z       0.204100
      7 C18          5.8550     2.5910    -0.2130 ca         1 10Z      -0.111300
      8 C20          6.1310     3.6920     0.5780 ca         1 10Z      -0.067000
      9 C22          6.5100     4.8850    -0.0060 ca         1 10Z      -0.121500
     10 C23          6.6150     4.9780    -1.3880 ca         1 10Z      -0.004400
     11 C21          6.3380     3.8700    -2.1790 ca         1 10Z      -0.121500
     12 C19          5.9630     2.6780    -1.5880 ca         1 10Z      -0.067000
     13 N17          6.9980     6.1840    -1.9820 nu         1 10Z      -0.277300
     14 C8           7.9020     7.0140    -1.3420 ca         1 10Z       0.703900
     15 N10          8.1580     8.1960    -1.8670 nb         1 10Z      -0.697000
     16 C12          9.0260     9.0240    -1.2750 ca         1 10Z       0.457600
     17 C14          9.3210    10.2890    -1.8060 ca         1 10Z      -0.168300
     18 C13         10.2090    11.1010    -1.1730 ca         1 10Z      -0.056000
     19 C15         10.8410    10.6940     0.0120 cp         1 10Z      -0.070000
     20 C16         10.5720     9.4520     0.5620 ca         1 10Z      -0.032000
     21 C11          9.6600     8.6030    -0.0770 ca         1 10Z      -0.335600
     22 C9           9.3450     7.3290     0.4350 ca         1 10Z       0.507200
     23 N7           8.4740     6.5890    -0.2160 nb         1 10Z      -0.666000
     24 C2          11.8050    11.6010     0.6810 cp         1 10Z       0.008000
     25 C4          12.0970    12.8600     0.1460 ca         1 10Z      -0.227300
     26 C6          13.0000    13.6720     0.8000 ca         1 10Z       0.411200
     27 N5          13.5850    13.2740     1.9140 nb         1 10Z      -0.587000
     28 C3          13.3400    12.0950     2.4500 ca         1 10Z       0.411200
     29 C1          12.4450    11.2220     1.8650 ca         1 10Z      -0.227300
     30 H1          -0.3610    -0.8850     0.5100 h1         1 10Z      -0.014633
     31 H2          -0.3610     0.8840     0.5110 h1         1 10Z      -0.014633
     32 H3          -0.3610     0.0000    -1.0210 h1         1 10Z      -0.014633
     33 H4           1.6910     0.8840     1.8420 h1         1 10Z      -0.011800
     34 H5           1.6920    -0.8850     1.8420 h1         1 10Z      -0.011800
     35 H6           3.9770    -0.0890     2.1680 h1         1 10Z       0.011700
     36 H7           3.8500    -0.8360     0.5690 h1         1 10Z       0.011700
     37 H8           3.6750     2.0290     1.1190 hn         1 10Z       0.252800
     38 H10          5.7670     0.4650    -0.1900 h1         1 10Z       0.007700
     39 H11          5.8950     1.2120     1.4080 h1         1 10Z       0.007700
     40 H12          6.0490     3.6190     1.6560 ha         1 10Z       0.105500
     41 H13          6.7260     5.7470     0.6130 ha         1 10Z       0.118500
     42 H14          6.4210     3.9390    -3.2570 ha         1 10Z       0.118500
     43 H15          5.7470     1.8140    -2.2040 ha         1 10Z       0.105500
     44 H16          6.6190     6.4480    -2.8690 hn         1 10Z       0.295800
     45 H17          8.8420    10.6190    -2.7210 ha         1 10Z       0.122000
     46 H18         10.4320    12.0760    -1.5890 ha         1 10Z       0.111000
     47 H19         11.0610     9.1410     1.4770 ha         1 10Z       0.114000
     48 H20          9.8020     6.9710     1.3500 h4         1 10Z      -0.014900
     49 H21         11.6200    13.1930    -0.7680 ha         1 10Z       0.120000
     50 H22         13.2310    14.6490     0.3940 h4         1 10Z      -0.020900
     51 H23         13.8420    11.8100     3.3670 h4         1 10Z      -0.020900
     52 H24         12.2490    10.2550     2.3110 ha         1 10Z       0.120000
@<TRIPOS>BOND
     1     1     2 1   
     2     1    30 1   
     3     1    31 1   
     4     1    32 1   
     5     2     3 1   
     6     3     4 1   
     7     3    33 1   
     8     3    34 1   
     9     4     5 1   
    10     4    35 1   
    11     4    36 1   
    12     5     6 1   
    13     5    37 1   
    14     6     7 1   
    15     6    38 1   
    16     6    39 1   
    17     7     8 ar  
    18     7    12 ar  
    19     8     9 ar  
    20     8    40 1   
    21     9    10 ar  
    22     9    41 1   
    23    10    11 ar  
    24    10    13 1   
    25    11    12 ar  
    26    11    42 1   
    27    12    43 1   
    28    13    14 1   
    29    13    44 1   
    30    14    15 ar  
    31    14    23 ar  
    32    15    16 ar  
    33    16    17 ar  
    34    16    21 ar  
    35    17    18 ar  
    36    17    45 1   
    37    18    19 ar  
    38    18    46 1   
    39    19    20 ar  
    40    19    24 1   
    41    20    21 ar  
    42    20    47 1   
    43    21    22 ar  
    44    22    23 ar  
    45    22    48 1   
    46    24    25 ar  
    47    24    29 ar  
    48    25    26 ar  
    49    25    49 1   
    50    26    27 ar  
    51    26    50 1   
    52    27    28 ar  
    53    28    29 ar  
    54    28    51 1   
    55    29    52 1   
@<TRIPOS>SUBSTRUCTURE
     1 10Z         1 TEMP              0 ****  ****    0 ROOT
