@<TRIPOS>MOLECULE
110
   80    83     1     0     0
SMALL
bcc


@<TRIPOS>ATOM
      1 N1           0.3400     0.8220    -0.3900 ny         1 110      -0.694800
      2 C1           1.7900     0.4470    -0.2910 c3         1 110       0.135500
      3 O3           2.4320    -1.4320    -3.3010 os         1 110      -0.358900
      4 C10          3.8580    -1.6050    -3.1530 c3         1 110       0.134400
      5 C11          4.3960    -1.6480    -4.5730 c3         1 110      -0.089400
      6 C9           1.6420    -1.1210    -2.2620 c          1 110       0.601100
      7 O2           0.4590    -0.9280    -2.5940 o          1 110      -0.537000
      8 C14          0.0940     2.2800    -0.7230 c          1 110       0.609700
      9 O4           1.0540     2.9260    -1.1280 o          1 110      -0.436100
     10 C17         -3.1620     3.9380    -1.1900 cc         1 110      -0.168000
     11 C18         -3.4010     3.2570     0.0050 cd         1 110      -0.010600
     12 N3          -2.2580     2.4880     0.3510 n          1 110      -0.078200
     13 C15         -1.2700     2.7560    -0.6340 cd         1 110      -0.264900
     14 C16         -1.8190     3.6370    -1.5910 cc         1 110       0.011000
     15 C21         -3.4400     1.8990     2.4850 c3         1 110       0.167800
     16 C20         -2.1630     1.9020     1.6230 c          1 110       0.613300
     17 O6          -3.6430     3.8750     4.5050 o          1 110      -0.636300
     18 O7          -4.5710     5.4280     2.9210 o          1 110      -0.636300
     19 C24         -7.5740     4.8650     2.3550 ca         1 110      -0.128000
     20 C23         -7.2230     3.7010     3.0550 ca         1 110      -0.101300
     21 C22         -6.1350     3.7420     4.0610 c3         1 110      -0.259300
     22 C26         -7.9480     2.5230     2.8440 ca         1 110      -0.128000
     23 C27         -9.0040     2.5050     1.9340 ca         1 110      -0.121000
     24 C28         -9.3470     3.6620     1.2350 ca         1 110      -0.107000
     25 C29         -8.6300     4.8410     1.4470 ca         1 110      -0.121000
     26 O5          -1.1090     1.3640     2.0100 o          1 110      -0.675500
     27 C19         -4.6110     3.2820     0.8940 c3         1 110       0.262100
     28 N4          -4.2770     3.0360     2.2740 n3         1 110      -0.790500
     29 C12          5.8750    -1.9700    -4.5800 c3         1 110      -0.083400
     30 C13          6.7260    -0.8260    -4.0910 c3         1 110      -0.099100
     31 C2           2.3790     0.6440     1.1180 c3         1 110      -0.087700
     32 C4           2.2780     2.0960     1.5650 c3         1 110      -0.088400
     33 C5           2.9930     2.3060     2.8860 c3         1 110      -0.097900
     34 C6           2.3710     1.3900     3.9460 c3         1 110       0.114500
     35 N2           3.0030     1.6130     5.2950 nz         1 110      -0.840600
     36 C7           2.4900    -0.0750     3.5100 c3         1 110      -0.097900
     37 C8           1.7850    -0.2690     2.1790 c3         1 110      -0.088400
     38 C3           2.0280    -1.0140    -0.7890 c3         1 110       0.050100
     39 O1           3.3840    -1.2860    -0.5210 oh         1 110      -0.581800
     40 S1          -4.5830     4.1430     3.4850 s6         1 110       1.428900
     41 HN1         -0.1250     0.5880     0.4970 hn         1 110       0.486300
     42 H1           2.3670     1.1310    -0.9930 hx         1 110       0.144700
     43 H101         4.2850    -0.7470    -2.5740 h1         1 110       0.051700
     44 H102         4.0400    -2.5740    -2.6210 h1         1 110       0.051700
     45 H111         4.2100    -0.6620    -5.0740 hc         1 110       0.072700
     46 H112         3.8340    -2.4290    -5.1530 hc         1 110       0.072700
     47 H17         -3.8580     4.5910    -1.7180 ha         1 110       0.207000
     48 H16         -1.3080     4.0170    -2.4780 ha         1 110       0.201000
     49 H211        -3.9820     0.9420     2.2180 h1         1 110       0.114200
     50 H212        -3.1100     1.8450     3.5660 h1         1 110       0.114200
     51 H221        -6.4300     4.5130     4.8390 h1         1 110       0.141200
     52 H222        -6.1230     2.7710     4.6310 h1         1 110       0.141200
     53 H26         -7.7020     1.6130     3.4110 ha         1 110       0.144000
     54 H27         -9.5780     1.5780     1.7800 ha         1 110       0.150500
     55 H28        -10.1910     3.6500     0.5270 ha         1 110       0.153000
     56 H29         -8.9090     5.7600     0.9090 ha         1 110       0.150500
     57 H191        -5.1060     4.2960     0.8000 h1         1 110       0.111700
     58 H192        -5.3370     2.4970     0.5200 h1         1 110       0.111700
     59 H121         6.1710    -2.2240    -5.6330 hc         1 110       0.058700
     60 H122         6.0690    -2.8820    -3.9550 hc         1 110       0.058700
     61 H131         6.5500     0.0890    -4.7070 hc         1 110       0.038700
     62 H132         6.4980    -0.5830    -3.0250 hc         1 110       0.038700
     63 H133         7.8080    -1.0950    -4.1650 hc         1 110       0.038700
     64 H2           3.4760     0.3820     1.0050 hc         1 110       0.117700
     65 H41          2.7350     2.7700     0.7900 hc         1 110       0.076450
     66 H42          1.2000     2.3920     1.6820 hc         1 110       0.076450
     67 H51          2.8930     3.3840     3.1860 hc         1 110       0.079950
     68 H52          4.0860     2.0780     2.7650 hc         1 110       0.079950
     69 H6           1.2730     1.6520     4.0650 hx         1 110       0.123700
     70 HD21         2.5580     1.0060     5.9920 hn         1 110       0.465467
     71 HD22         4.0040     1.3960     5.2560 hn         1 110       0.465467
     72 H71          2.0190    -0.7520     4.2720 hc         1 110       0.079950
     73 H72          3.5710    -0.3620     3.4090 hc         1 110       0.079950
     74 H81          1.9110    -1.3410     1.8700 hc         1 110       0.076450
     75 H82          0.6880    -0.0710     2.3160 hc         1 110       0.076450
     76 H3           1.3620    -1.7340    -0.2270 h1         1 110       0.083700
     77 HO1          3.5090    -2.2440    -0.5950 ho         1 110       0.449000
     78 H23          2.8860     2.5920     5.5740 hn         1 110       0.465467
     79 H12         -0.1150     0.2720    -1.1490 hn         1 110       0.486300
     80 H24         -7.0200     5.8020     2.5310 ha         1 110       0.144000
@<TRIPOS>BOND
     1     1     2 1   
     2     1     8 1   
     3     1    41 1   
     4     1    79 1   
     5     2    31 1   
     6     2    38 1   
     7     2    42 1   
     8     3     4 1   
     9     3     6 1   
    10     4     5 1   
    11     4    43 1   
    12     4    44 1   
    13     5    29 1   
    14     5    45 1   
    15     5    46 1   
    16     6     7 2   
    17     6    38 1   
    18     8     9 2   
    19     8    13 1   
    20    10    11 2   
    21    10    14 1   
    22    10    47 1   
    23    11    12 1   
    24    11    27 1   
    25    12    13 1   
    26    12    16 1   
    27    13    14 2   
    28    14    48 1   
    29    15    16 1   
    30    15    28 1   
    31    15    49 1   
    32    15    50 1   
    33    16    26 2   
    34    17    40 2   
    35    18    40 2   
    36    19    20 ar  
    37    19    25 ar  
    38    19    80 1   
    39    20    21 1   
    40    20    22 ar  
    41    21    40 1   
    42    21    51 1   
    43    21    52 1   
    44    22    23 ar  
    45    22    53 1   
    46    23    24 ar  
    47    23    54 1   
    48    24    25 ar  
    49    24    55 1   
    50    25    56 1   
    51    27    28 1   
    52    27    57 1   
    53    27    58 1   
    54    28    40 1   
    55    29    30 1   
    56    29    59 1   
    57    29    60 1   
    58    30    61 1   
    59    30    62 1   
    60    30    63 1   
    61    31    32 1   
    62    31    37 1   
    63    31    64 1   
    64    32    33 1   
    65    32    65 1   
    66    32    66 1   
    67    33    34 1   
    68    33    67 1   
    69    33    68 1   
    70    34    35 1   
    71    34    36 1   
    72    34    69 1   
    73    35    70 1   
    74    35    71 1   
    75    35    78 1   
    76    36    37 1   
    77    36    72 1   
    78    36    73 1   
    79    37    74 1   
    80    37    75 1   
    81    38    39 1   
    82    38    76 1   
    83    39    77 1   
@<TRIPOS>SUBSTRUCTURE
     1 110         1 TEMP              0 ****  ****    0 ROOT
