@<TRIPOS>MOLECULE
molecule
   79    82     1     0     0
SMALL
bcc


@<TRIPOS>ATOM
      1 N1           0.0000     0.0000     0.0000 ns         1 110      -0.587900
      2 C1           1.4650     0.0000     0.0000 c3         1 110       0.111700
      3 O3           0.2550    -1.2520    -2.4920 os         1 110      -0.494900
      4 C10         -0.1490    -1.2050    -3.8860 c3         1 110       0.135400
      5 C11         -1.6730    -1.2780    -3.9780 c3         1 110      -0.069400
      6 C9           1.5560    -1.2010    -2.1670 c          1 110       0.609100
      7 O2           2.3930    -1.1170    -3.0350 o          1 110      -0.493000
      8 C14         -0.6730     1.1630     0.1010 c          1 110       0.679700
      9 O4          -0.0680     2.2190     0.0960 o          1 110      -0.563100
     10 C17         -4.2600     0.4930     0.4270 cc         1 110      -0.184000
     11 C18         -4.2530     1.8340     0.3380 cd         1 110      -0.078600
     12 N3          -2.9550     2.2620     0.2170 n          1 110      -0.011200
     13 C15         -2.1350     1.1560     0.2170 cd         1 110      -0.167900
     14 C16         -2.9300     0.0500     0.3520 cc         1 110      -0.164000
     15 C21         -3.6910     4.6140     0.1870 c3         1 110       0.168800
     16 C20         -2.6110     3.5610     0.0930 c          1 110       0.564300
     17 O6          -6.6240     3.7270    -1.9750 o          1 110      -0.608300
     18 O7          -4.9150     5.5240    -2.1480 o          1 110      -0.608300
     19 C24         -9.0900     6.1610    -1.7080 ca         1 110      -0.106000
     20 C23         -7.8530     6.6740    -1.3660 ca         1 110      -0.107300
     21 C22         -6.9480     5.9040    -0.4380 c3         1 110      -0.157300
     22 C26         -7.4460     7.8940    -1.8720 ca         1 110      -0.106000
     23 C27         -8.2730     8.5990    -2.7270 ca         1 110      -0.120500
     24 C28         -9.5100     8.0850    -3.0700 ca         1 110      -0.112000
     25 C29         -9.9180     6.8670    -2.5610 ca         1 110      -0.120500
     26 O5          -1.4580     3.8770    -0.0840 o          1 110      -0.502500
     27 C19         -5.4300     2.7830     0.3660 c3         1 110       0.300100
     28 N4          -4.9730     4.0430    -0.2490 n3         1 110      -0.834500
     29 C12         -2.0980    -1.2280    -5.4470 c3         1 110      -0.079400
     30 C13         -3.6240    -1.3020    -5.5390 c3         1 110      -0.091100
     31 C2           1.9740     0.0000     1.4430 c3         1 110      -0.106700
     32 C4           1.5820     1.3130     2.1220 c3         1 110      -0.091400
     33 C5           2.0910     1.3140     3.5640 c3         1 110      -0.102400
     34 C6           1.4700     0.1400     4.3250 c3         1 110       0.083500
     35 N2           0.0070     0.2750     4.3230 nz         1 110      -0.861600
     36 C7           1.8630    -1.1720     3.6460 c3         1 110      -0.102400
     37 C8           1.3530    -1.1730     2.2040 c3         1 110      -0.091400
     38 C3           1.9750    -1.2500    -0.7200 c3         1 110       0.061100
     39 O1           3.4000    -1.2990    -0.6380 oh         1 110      -0.510800
     40 HN1         -0.5000    -0.8590    -0.1170 hn         1 110       0.327500
     41 H1           1.8270     0.8840    -0.5110 h1         1 110       0.122700
     42 H101         0.3440    -0.2600    -3.6920 h1         1 110       0.079200
     43 H102         0.4070    -1.8910    -4.5130 h1         1 110       0.079200
     44 H111        -2.1080    -0.4390    -3.4480 hc         1 110       0.052700
     45 H112        -2.0180    -2.2040    -3.5340 hc         1 110       0.052700
     46 H17         -5.1360    -0.1340     0.5360 ha         1 110       0.167000
     47 H16         -2.6060    -0.9800     0.2760 ha         1 110       0.152000
     48 H211        -3.7870     4.9060     1.2260 h1         1 110       0.098700
     49 H212        -3.4340     5.4210    -0.4880 h1         1 110       0.098700
     50 H221        -6.3330     6.5970     0.1230 h1         1 110       0.102200
     51 H222        -7.5490     5.3180     0.2480 h1         1 110       0.102200
     52 H26         -6.4930     8.3140    -1.5720 ha         1 110       0.136500
     53 H27         -7.9710     9.5730    -3.0920 ha         1 110       0.141000
     54 H28        -10.1610     8.6390    -3.7340 ha         1 110       0.140000
     55 H29        -10.9240     6.5620    -2.8210 ha         1 110       0.141000
     56 H191        -6.2520     2.3700    -0.2060 h1         1 110       0.082200
     57 H192        -5.7360     2.9610     1.3900 h1         1 110       0.082200
     58 H121        -1.7540    -0.3020    -5.8920 hc         1 110       0.049200
     59 H122        -1.6630    -2.0670    -5.9780 hc         1 110       0.049200
     60 H131        -4.0540    -0.3910    -5.1430 hc         1 110       0.039033
     61 H132        -3.9180    -1.4200    -6.5750 hc         1 110       0.039033
     62 H133        -3.9800    -2.1490    -4.9650 hc         1 110       0.039033
     63 H2           3.0530    -0.0990     1.4500 hc         1 110       0.089700
     64 H41          0.5200     1.1220     2.0270 hc         1 110       0.066200
     65 H42          1.9050     2.1790     1.5560 hc         1 110       0.066200
     66 H51          3.1700     1.2130     3.5650 hc         1 110       0.085200
     67 H52          1.8110     2.2440     4.0450 hc         1 110       0.085200
     68 H6           1.8350     0.1400     5.3450 hx         1 110       0.106700
     69 HD21         0.2850     0.2810     5.2840 hn         1 110       0.478467
     70 HD22        -0.4870    -0.5470     4.0370 hn         1 110       0.478467
     71 H71          1.4210    -2.0020     4.1840 hc         1 110       0.085200
     72 H72          2.9420    -1.2690     3.6470 hc         1 110       0.085200
     73 H81          0.2740    -1.0720     2.2030 hc         1 110       0.066200
     74 H82          1.6340    -2.1030     1.7230 hc         1 110       0.066200
     75 H3           1.5560    -2.1320    -0.2520 h1         1 110       0.047700
     76 HO1          3.0540    -2.0740    -0.2260 ho         1 110       0.404000
     77 S1          -5.8850     4.7990    -1.4060 s6         1 110       1.323900
     78 H23         -0.3300     1.1540     3.9820 hn         1 110       0.478467
     79 H24         -9.4260     5.2250    -1.2790 ha         1 110       0.136500
@<TRIPOS>BOND
     1     1     2 1
     2     1     8 1
     3     1    40 1
     4     2    31 1
     5     2    38 1
     6     2    41 1
     7     3     4 1
     8     3     6 1
     9     4     5 1
    10     4    42 1
    11     4    43 1
    12     5    29 1
    13     5    44 1
    14     5    45 1
    15     6     7 2
    16     6    38 1
    17     8     9 2
    18     8    13 1
    19    10    11 2
    20    10    14 1
    21    10    46 1
    22    11    12 1
    23    11    27 1
    24    12    13 1
    25    12    16 1
    26    13    14 2
    27    14    47 1
    28    15    16 1
    29    15    28 1
    30    15    48 1
    31    15    49 1
    32    16    26 2
    33    77    17 2
    34    77    18 2
    35    77    21 1
    36    77    28 1
    37    19    20 ar
    38    19    25 ar
    39    19    79 1
    40    20    21 1
    41    20    22 ar
    42    21    50 1
    43    21    51 1
    44    22    23 ar
    45    22    52 1
    46    23    24 ar
    47    23    53 1
    48    24    25 ar
    49    24    54 1
    50    25    55 1
    51    27    28 1
    52    27    56 1
    53    27    57 1
    54    29    30 1
    55    29    58 1
    56    29    59 1
    57    30    60 1
    58    30    61 1
    59    30    62 1
    60    31    32 1
    61    31    37 1
    62    31    63 1
    63    32    33 1
    64    32    64 1
    65    32    65 1
    66    33    34 1
    67    33    66 1
    68    33    67 1
    69    34    35 1
    70    34    36 1
    71    34    68 1
    72    35    69 1
    73    35    70 1
    74    36    37 1
    75    36    71 1
    76    36    72 1
    77    37    73 1
    78    37    74 1
    79    38    39 1
    80    38    75 1
    81    39    76 1
    82    78    35 1
@<TRIPOS>SUBSTRUCTURE
     1 110         1 TEMP              0 ****  ****    0 ROOT
