@<TRIPOS>MOLECULE
molecule
   53    54     1     0     0
SMALL
bcc


@<TRIPOS>ATOM
      1 O5           0.0000     0.0000     0.0000 o          1 111      -0.621800
      2 S2           1.4210     0.0000     0.0000 s6         1 111       1.320900
      3 O4           2.1770     0.0000     1.2040 o          1 111      -0.621800
      4 C13          2.0880    -1.1780    -1.2070 c3         1 111      -0.248300
      5 N2           1.7880     1.4710    -0.6650 n7         1 111      -0.907100
      6 C17          1.1750     1.8760    -1.9330 c3         1 111       0.231500
      7 C11          2.1150     1.5720    -3.1270 c3         1 111       0.209800
      8 C9           1.0470     3.4200    -2.0220 c3         1 111      -0.084400
      9 C8           1.0670     3.6820    -3.5420 c3         1 111       0.186500
     10 C20         -0.3430     3.8300    -4.0560 c          1 111       0.661100
     11 OB          -0.9370     2.8620    -4.4820 o          1 111      -0.552100
     12 NA          -0.9420     5.0370    -4.0410 ns         1 111      -0.466400
     13 OA          -2.2660     5.1760    -4.5240 oh         1 111      -0.353100
     14 N1           1.7080     2.5220    -4.1770 n3         1 111      -0.802500
     15 S1           1.9410     2.3190    -5.8040 sy         1 111       1.450200
     16 O1           1.9710     0.9140    -6.0170 o          1 111      -0.619300
     17 O2           1.0520     3.2280    -6.4380 o          1 111      -0.619300
     18 C1           3.5630     2.8940    -6.1800 ca         1 111      -0.362500
     19 C2           4.6460     2.0460    -6.0380 ca         1 111       0.006500
     20 C3           5.9190     2.4950    -6.3320 ca         1 111      -0.216000
     21 C4           6.1100     3.7980    -6.7700 ca         1 111       0.175100
     22 C5           5.0230     4.6480    -6.9060 ca         1 111      -0.216000
     23 C6           3.7510     4.1930    -6.6170 ca         1 111       0.006500
     24 O3           7.3620     4.2420    -7.0610 os         1 111      -0.292900
     25 C7           7.2310     5.6020    -7.4790 c3         1 111       0.111400
     26 C10          8.6110     6.1650    -7.8220 c3         1 111      -0.086400
     27 C12          8.4710     7.6210    -8.2690 c3         1 111      -0.083400
     28 C14          9.8520     8.1840    -8.6120 c3         1 111      -0.090100
     29 H131         2.1410    -2.1630    -0.7590 h1         1 111       0.100700
     30 H132         1.4420    -1.2110    -2.0760 h1         1 111       0.100700
     31 H133         3.0810    -0.8650    -1.5070 h1         1 111       0.100700
     32 HN2          2.4060     2.0950    -0.1860 hn         1 111       0.455800
     33 H17          0.2110     1.4020    -2.0730 h1         1 111       0.108700
     34 H111         3.1470     1.7430    -2.8450 h1         1 111       0.056700
     35 H112         1.9730     0.5530    -3.4660 h1         1 111       0.056700
     36 H91          0.1090     3.7500    -1.5910 hc         1 111       0.067700
     37 H92          1.8890     3.9010    -1.5400 hc         1 111       0.067700
     38 H8           1.6390     4.5780    -3.7530 h1         1 111       0.054700
     39 HNA         -0.4390     5.8420    -3.7230 hn         1 111       0.315500
     40 HOA         -2.5590     6.0620    -4.3880 ho         1 111       0.397000
     41 H2           4.4960     1.0290    -5.6960 ha         1 111       0.151000
     42 H3           6.7670     1.8300    -6.2230 ha         1 111       0.149500
     43 H5           5.1690     5.6660    -7.2480 ha         1 111       0.149500
     44 H6           2.9010     4.8560    -6.7230 ha         1 111       0.151000
     45 H71          6.7910     6.1850    -6.6780 h1         1 111       0.044700
     46 H72          6.5930     5.6510    -8.3530 h1         1 111       0.044700
     47 H101         9.2490     6.1160    -6.9480 hc         1 111       0.057700
     48 H102         9.0500     5.5820    -8.6230 hc         1 111       0.057700
     49 H121         8.0320     8.2040    -7.4690 hc         1 111       0.041700
     50 H122         7.8330     7.6710    -9.1440 hc         1 111       0.041700
     51 H141         9.7540     9.2190    -8.9180 hc         1 111       0.037367
     52 H142        10.2860     7.6090    -9.4210 hc         1 111       0.037367
     53 H143        10.4930     8.1240    -7.7410 hc         1 111       0.037367
@<TRIPOS>BOND
     1     1     2 2
     2     2     3 2
     3     2     4 1
     4     2     5 1
     5     4    29 1
     6     4    30 1
     7     4    31 1
     8     5     6 1
     9     5    32 1
    10     6     7 1
    11     6     8 1
    12     6    33 1
    13     7    14 1
    14     7    34 1
    15     7    35 1
    16     8     9 1
    17     8    36 1
    18     8    37 1
    19     9    10 1
    20     9    14 1
    21     9    38 1
    22    10    11 2
    23    10    12 1
    24    12    13 1
    25    12    39 1
    26    13    40 1
    27    14    15 1
    28    15    16 2
    29    15    17 2
    30    15    18 1
    31    18    19 ar
    32    18    23 ar
    33    19    20 ar
    34    19    41 1
    35    20    21 ar
    36    20    42 1
    37    21    22 ar
    38    21    24 1
    39    22    23 ar
    40    22    43 1
    41    23    44 1
    42    24    25 1
    43    25    26 1
    44    25    45 1
    45    25    46 1
    46    26    27 1
    47    26    47 1
    48    26    48 1
    49    27    28 1
    50    27    49 1
    51    27    50 1
    52    28    51 1
    53    28    52 1
    54    28    53 1
@<TRIPOS>SUBSTRUCTURE
     1 111         1 TEMP              0 ****  ****    0 ROOT
