@<TRIPOS>MOLECULE
molecule
   55    56     1     0     0
SMALL
bcc


@<TRIPOS>ATOM
      1 O5           0.0000     0.0000     0.0000 o          1 111      -0.530800
      2 S2           1.5720     0.0000     0.0000 s6         1 111       1.482900
      3 O4           2.1380     0.0000     1.4700 o          1 111      -0.530800
      4 C13          2.2190    -1.4290    -0.8400 c3         1 111      -0.525300
      5 N2           2.1090     1.4540    -0.7620 ny         1 111      -0.680900
      6 C17          3.1710     2.2280    -0.1050 c3         1 111       0.113500
      7 C11          2.8190     3.7170     0.0810 c3         1 111       0.208800
      8 C9           4.4570     2.2200    -0.9360 c3         1 111      -0.111400
      9 C8           5.0900     3.5790    -0.6890 c3         1 111       0.195500
     10 C20          5.8570     3.3890     0.6030 c          1 111       0.533100
     11 OB           5.4660     2.4310     1.4690 o          1 111      -0.385100
     12 NA           6.9370     4.1170     0.8330 ny         1 111      -0.440300
     13 OA           7.7360     3.5390     1.7890 oh         1 111      -0.372300
     14 N1           3.9160     4.4470    -0.5840 n3         1 111      -0.801500
     15 S1           4.1450     6.1480    -0.3510 sy         1 111       1.579200
     16 O1           5.3510     6.6340    -1.2170 o          1 111      -0.686300
     17 O2           2.8780     6.8870    -0.8840 o          1 111      -0.686300
     18 C1           4.4380     6.5850     1.3050 ca         1 111      -0.561500
     19 C2           3.4480     6.3080     2.2430 ca         1 111       0.043500
     20 C3           3.6010     6.6820     3.5720 ca         1 111      -0.214500
     21 C4           4.7590     7.3310     3.9820 ca         1 111       0.269100
     22 C5           5.7440     7.6340     3.0570 ca         1 111      -0.214500
     23 C6           5.5910     7.2600     1.7200 ca         1 111       0.043500
     24 O3           4.8960     7.6560     5.1750 os         1 111      -0.289900
     25 C7           3.7150     7.8620     5.9540 c3         1 111       0.126400
     26 C10          4.0180     8.4810     7.2940 c3         1 111      -0.088400
     27 C12          4.5670     9.9090     7.1960 c3         1 111      -0.085400
     28 C14          5.3460    10.1600     5.9260 c3         1 111      -0.095100
     29 H131         1.6480    -2.3040    -0.5570 h1         1 111       0.204700
     30 H132         3.2570    -1.5710    -0.5640 h1         1 111       0.204700
     31 H133         2.1470    -1.2820    -1.9110 h1         1 111       0.204700
     32 HN2          1.3150     2.0540    -0.8620 hn         1 111       0.418300
     33 H17          3.3800     1.7940     0.8660 hx         1 111       0.126700
     34 H111         2.7860     3.9670     1.1350 h1         1 111       0.089200
     35 H112         1.8730     3.9420    -0.3960 h1         1 111       0.089200
     36 H91          4.2230     2.1000    -1.9870 hc         1 111       0.104700
     37 H92          5.1170     1.4310    -0.5980 hc         1 111       0.104700
     38 H8           5.7350     3.8690    -1.5100 h1         1 111       0.112700
     39 HNA          7.4570     4.2060    -0.0170 hn         1 111       0.492800
     40 HOA          8.6160     3.8690     1.7050 ho         1 111       0.509000
     41 H2           2.5420     5.8030     1.9300 ha         1 111       0.146000
     42 H3           2.8330     6.4360     4.2960 ha         1 111       0.178500
     43 H5           6.6440     8.1480     3.3740 ha         1 111       0.178500
     44 H6           6.3650     7.5000     1.0010 ha         1 111       0.146000
     45 H71          3.0450     8.5160     5.4090 h1         1 111       0.057200
     46 H72          3.2270     6.9080     6.1100 h1         1 111       0.057200
     47 H101         4.7470     7.8640     7.8040 hc         1 111       0.072700
     48 H102         3.1070     8.5000     7.8800 hc         1 111       0.072700
     49 H121         5.2170    10.0900     8.0430 hc         1 111       0.055200
     50 H122         3.7380    10.6040     7.2380 hc         1 111       0.055200
     51 H141         6.0890     9.3820     5.7980 hc         1 111       0.038367
     52 H142         5.8380    11.1230     5.9890 hc         1 111       0.038367
     53 H143         4.6680    10.1550     5.0800 hc         1 111       0.038367
     54 H23          2.4380     1.2140    -1.6760 hn         1 111       0.418300
     55 HA2          6.6570     5.0350     1.1160 hn         1 111       0.492800
@<TRIPOS>BOND
     1     1     2 2   
     2     2     3 2   
     3     2     4 1   
     4     2     5 1   
     5     4    29 1   
     6     4    30 1   
     7     4    31 1   
     8     5     6 1   
     9     5    32 1   
    10     6     7 1   
    11     6     8 1   
    12     6    33 1   
    13     7    14 1   
    14     7    34 1   
    15     7    35 1   
    16     8     9 1   
    17     8    36 1   
    18     8    37 1   
    19     9    10 1   
    20     9    14 1   
    21     9    38 1   
    22    10    11 2   
    23    10    12 1   
    24    12    13 1   
    25    12    39 1   
    26    13    40 1   
    27    14    15 1   
    28    15    16 2   
    29    15    17 2   
    30    15    18 1   
    31    18    19 ar  
    32    18    23 ar  
    33    19    20 ar  
    34    19    41 1   
    35    20    21 ar  
    36    20    42 1   
    37    21    22 ar  
    38    21    24 1   
    39    22    23 ar  
    40    22    43 1   
    41    23    44 1   
    42    24    25 1   
    43    25    26 1   
    44    25    45 1   
    45    25    46 1   
    46    26    27 1   
    47    26    47 1   
    48    26    48 1   
    49    27    28 1   
    50    27    49 1   
    51    27    50 1   
    52    28    51 1   
    53    28    52 1   
    54    28    53 1   
    55    54     5 1   
    56    55    12 1   
@<TRIPOS>SUBSTRUCTURE
     1 111         1 TEMP              0 ****  ****    0 ROOT
