@<TRIPOS>MOLECULE
112
   52    54     1     0     0
SMALL
bcc


@<TRIPOS>ATOM
      1 NS          2.7650   -0.3350   -1.3020 n4        1 112     -0.754400
      2 C2S         2.1760    0.9850   -0.9660 c         1 112      0.549100
      3 O2S         1.6130    1.6130   -1.8620 o         1 112     -0.514100
      4 C1S         2.2700    1.3590    0.4870 c3        1 112     -0.030100
      5 PG          4.8150   -1.8120   -4.4960 p5        1 112      1.546800
      6 S1G         1.8470   -0.0720    1.3870 s         1 112     -0.871300
      7 O2G         4.2370   -2.8590   -5.3400 o         1 112     -0.861500
      8 O3G         4.0710   -1.3130   -3.3130 o         1 112     -0.861500
      9 PB          7.0990   -0.7470   -4.9250 p5        1 112      1.848500
     10 O1B         7.7820    0.2890   -4.1610 o         1 112     -0.880300
     11 O2B         5.5460   -0.5500   -5.3110 os        1 112     -0.725800
     12 O3B         6.4400   -1.9970   -4.1490 os        1 112     -0.725800
     13 PA          8.9630   -1.6210   -7.4240 p5        1 112      1.605800
     14 O1A         8.2240   -1.6650   -8.6850 o         1 112     -0.847500
     15 O2A         9.9080   -2.6300   -6.9120 o         1 112     -0.847500
     16 O3A         7.9500   -1.2200   -6.1570 os        1 112     -0.810800
     17 O5'         9.8360   -0.2160   -7.4380 os        1 112     -0.596200
     18 C5'        10.6740    0.0280   -6.3550 c3        1 112      0.175400
     19 C4'        12.0850    0.4370   -6.8080 c3        1 112      0.122100
     20 O4'        13.0150   -0.6290   -6.5100 os        1 112     -0.417600
     21 C3'        12.2050    0.7730   -8.3030 c3        1 112      0.128100
     22 O3'        12.9660    1.9660   -8.4100 oh        1 112     -0.607800
     23 C2'        12.9320   -0.4430   -8.9140 c3        1 112      0.071100
     24 O2'        13.8610    0.0150   -9.8760 oh        1 112     -0.611800
     25 C1'        13.6580   -1.0990   -7.6960 c3        1 112      0.232800
     26 N9         13.6870   -2.5440   -7.7220 na        1 112     -0.279000
     27 C8         12.8090   -3.4790   -7.1110 cc        1 112      0.487700
     28 N7         13.2380   -4.7480   -7.2160 nd        1 112     -0.588100
     29 C5         14.4480   -4.6800   -7.9210 ca        1 112     -0.193200
     30 C6         15.3700   -5.6760   -8.3680 ca        1 112      0.707200
     31 N6         15.1800   -7.0060   -8.0100 nh        1 112     -0.934500
     32 N1         16.4680   -5.2920   -9.0980 nb        1 112     -0.799000
     33 C2         16.6280   -3.9590   -9.3280 ca        1 112      0.648900
     34 N3         15.8570   -2.9110   -8.9630 nb        1 112     -0.736000
     35 C4         14.7530   -3.2900   -8.2480 ca        1 112      0.419800
     36 HNS1        3.7660   -0.2490   -1.5440 hn        1 112      0.491800
     37 HNS2        2.3370   -0.7610   -2.1350 hn        1 112      0.491800
     38 H1S1        3.3110    1.6960    0.7140 h1        1 112      0.063700
     39 H1S2        1.5710    2.2070    0.6830 h1        1 112      0.063700
     40 H5'1       10.7510   -0.8870   -5.7020 h1        1 112      0.059200
     41 H5'2       10.2520    0.8880   -5.7580 h1        1 112      0.059200
     42 H4'        12.4450    1.3030   -6.1840 h1        1 112      0.073700
     43 H3'        11.1970    0.9210   -8.7780 h1        1 112      0.110700
     44 HO3'       13.2100    2.0570   -9.3390 ho        1 112      0.410000
     45 H2'        12.1920   -1.1410   -9.3890 h1        1 112      0.086700
     46 HO2'       14.3930   -0.7490  -10.1330 ho        1 112      0.420000
     47 H1'        14.7310   -0.7350   -7.6560 h2        1 112      0.080700
     48 H8         11.8440   -3.1520   -6.6470 h5        1 112      0.179800
     49 HN61       15.6430   -7.6930   -8.5560 hn        1 112      0.418300
     50 HN62       14.2580   -7.2330   -7.7130 hn        1 112      0.418300
     51 H2         17.5340   -3.7000   -9.9140 h5        1 112      0.031100
     52 HS3         2.6450   -0.9390   -0.4470 hn        1 112      0.491800
@<TRIPOS>BOND
     1    1    2 1   
     2    1   36 1   
     3    1   37 1   
     4    1   52 1   
     5    2    3 2   
     6    2    4 1   
     7    4    6 1   
     8    4   38 1   
     9    4   39 1   
    10    5    7 1   
    11    5    8 1   
    12    5   11 1   
    13    5   12 1   
    14    9   10 2   
    15    9   11 1   
    16    9   12 1   
    17    9   16 1   
    18   13   14 1   
    19   13   15 1   
    20   13   16 1   
    21   13   17 1   
    22   17   18 1   
    23   18   19 1   
    24   18   40 1   
    25   18   41 1   
    26   19   20 1   
    27   19   21 1   
    28   19   42 1   
    29   20   25 1   
    30   21   22 1   
    31   21   23 1   
    32   21   43 1   
    33   22   44 1   
    34   23   24 1   
    35   23   25 1   
    36   23   45 1   
    37   24   46 1   
    38   25   26 1   
    39   25   47 1   
    40   26   27 1   
    41   26   35 1   
    42   27   28 2   
    43   27   48 1   
    44   28   29 1   
    45   29   30 ar  
    46   29   35 ar  
    47   30   31 1   
    48   30   32 ar  
    49   31   49 1   
    50   31   50 1   
    51   32   33 ar  
    52   33   34 ar  
    53   33   51 1   
    54   34   35 ar  
@<TRIPOS>SUBSTRUCTURE
     1 112         1 TEMP              0 ****  ****    0 ROOT
