@<TRIPOS>MOLECULE
molecule
   52    54     1     0     0
SMALL
bcc


@<TRIPOS>ATOM
      1 NS           0.0000     0.0000     0.0000 nz         1 112      -0.679400
      2 C2S          1.3470     0.0000     0.0000 c          1 112       0.439100
      3 O2S          1.9530     0.0000     1.0510 o          1 112      -0.411100
      4 C1S          2.1020     0.0030    -1.3050 c3         1 112       0.030700
      5 PG           4.6290     0.0070    -2.9570 p5         1 112       0.961800
      6 S1G          3.8850     0.0040    -0.9720 ss         1 112      -0.467500
      7 O2G          4.1090    -1.3060    -3.7280 o          1 112      -0.649500
      8 O3G          4.1480     1.2160    -3.6610 o          1 112      -0.649500
      9 PB           6.7340     0.0110    -4.4570 p5         1 112       1.232800
     10 O1B          6.1750     1.3270    -5.1990 o          1 112      -0.692000
     11 O2B          6.2230    -1.1960    -5.1440 o          1 112      -0.692000
     12 O3B          6.2390     0.0090    -2.9260 os         1 112      -0.601800
     13 PA           8.7660     0.0150    -6.0550 p5         1 112       1.251800
     14 O1A          8.1730     1.3300    -6.7710 o          1 112      -0.781000
     15 O2A          8.2230    -1.1920    -6.7160 o          1 112      -0.781000
     16 O3A          8.3420     0.0120    -4.5030 os         1 112      -0.638800
     17 O5'         10.3700     0.0170    -6.1750 os         1 112      -0.535200
     18 C5'         10.6800     0.0190    -7.5690 c3         1 112       0.164400
     19 C4'         12.1990     0.0210    -7.7550 c3         1 112       0.120100
     20 O4'         12.7630    -1.1700    -7.1790 os         1 112      -0.380600
     21 C3'         12.5450     0.0160    -9.2560 c3         1 112       0.087100
     22 O3'         13.3040     1.1730    -9.6050 oh         1 112      -0.588800
     23 C2'         13.3960    -1.2680    -9.4410 c3         1 112       0.083100
     24 O2'         14.4950    -1.0270   -10.3210 oh         1 112      -0.577800
     25 C1'         13.8920    -1.5420    -7.9990 c3         1 112       0.246800
     26 N9          14.2160    -2.9580    -7.8200 na         1 112      -0.236000
     27 C8          13.3420    -3.9480    -7.4840 cc         1 112       0.465700
     28 N7          13.9680    -5.0870    -7.4110 nd         1 112      -0.618100
     29 C5          15.2790    -4.9000    -7.6950 ca         1 112      -0.204200
     30 C6          16.4030    -5.7390    -7.7680 ca         1 112       0.773200
     31 N6          16.2930    -7.0950    -7.5170 nv         1 112      -0.997500
     32 N1          17.5770    -5.2000    -8.0850 nb         1 112      -0.854000
     33 C2          17.6920    -3.9070    -8.3260 ca         1 112       0.711900
     34 N3          16.6660    -3.0840    -8.2690 nb         1 112      -0.771000
     35 C4          15.4530    -3.5330    -7.9670 ca         1 112       0.469800
     36 HNS1        -0.3340     0.8160    -0.4750 hn         1 112       0.432467
     37 HNS2        -0.3340    -0.8190    -0.4690 hn         1 112       0.432467
     38 H1S1         1.8410    -0.8800    -1.8750 h1         1 112       0.104700
     39 H1S2         1.8400     0.8890    -1.8710 h1         1 112       0.104700
     40 H5'1        10.2610    -0.8650    -8.0340 h1         1 112       0.062200
     41 H5'2        10.2600     0.9040    -8.0310 h1         1 112       0.062200
     42 H4'         12.6310     0.8950    -7.2830 h1         1 112       0.076700
     43 H3'         11.6410    -0.0440    -9.8500 h1         1 112       0.063700
     44 HO3'        12.8310     1.6790   -10.2450 ho         1 112       0.399000
     45 H2'         12.7810    -2.0860    -9.7960 h1         1 112       0.057700
     46 HO2'        14.2880    -1.3580   -11.1800 ho         1 112       0.392000
     47 H1'         14.7470    -0.9180    -7.7690 h2         1 112       0.101700
     48 H8          12.2830    -3.8080    -7.3040 h5         1 112       0.117800
     49 HN61        17.1020    -7.6820    -7.5700 hn         1 112       0.442300
     50 HN62        15.4030    -7.4900    -7.2830 hn         1 112       0.442300
     51 H2          18.6670    -3.5090    -8.5810 h5         1 112       0.046100
     52 HS3         -0.3340    -0.0030     0.9440 hn         1 112       0.432467
@<TRIPOS>BOND
     1     1     2 1
     2     1    36 1
     3     1    37 1
     4     2     3 2
     5     2     4 1
     6     4     6 1
     7     4    38 1
     8     4    39 1
     9     5     6 1
    10     5     7 1
    11     5     8 1
    12     5    12 1
    13     9    10 1
    14     9    11 1
    15     9    12 1
    16     9    16 1
    17    13    14 1
    18    13    15 1
    19    13    16 1
    20    13    17 1
    21    17    18 1
    22    18    19 1
    23    18    40 1
    24    18    41 1
    25    19    20 1
    26    19    21 1
    27    19    42 1
    28    20    25 1
    29    21    22 1
    30    21    23 1
    31    21    43 1
    32    22    44 1
    33    23    24 1
    34    23    25 1
    35    23    45 1
    36    24    46 1
    37    25    26 1
    38    25    47 1
    39    26    27 1
    40    26    35 1
    41    27    28 2
    42    27    48 1
    43    28    29 1
    44    29    30 ar
    45    29    35 ar
    46    30    31 1
    47    30    32 ar
    48    31    49 1
    49    31    50 1
    50    32    33 ar
    51    33    34 ar
    52    33    51 1
    53    34    35 ar
    54    52     1 1
@<TRIPOS>SUBSTRUCTURE
     1 112         1 TEMP              0 ****  ****    0 ROOT
