@<TRIPOS>MOLECULE
molecule
   52    54     1     0     0
SMALL
bcc


@<TRIPOS>ATOM
      1 NS           0.0000     0.0000     0.0000 nz         1 112      -1.031400
      2 C2S          1.3330     0.0000     0.0000 c          1 112       0.593100
      3 O2S          1.8770     0.0000     1.1090 o          1 112      -0.691100
      4 C1S          2.1840    -0.0050    -1.2690 c3         1 112       0.083700
      5 PG           4.3800    -2.0810    -1.0810 p5         1 112       1.507800
      6 S1G          2.6050    -1.6430    -1.9420 ss         1 112      -0.682500
      7 O2G          4.2450    -2.1120     0.3850 o          1 112      -0.828000
      8 O3G          4.9960    -3.2910    -1.6650 o          1 112      -0.828000
      9 PB           5.7670     0.3920    -0.7590 p5         1 112       1.709800
     10 O1B          5.0770     0.5610     0.5260 o          1 112      -0.855500
     11 O2B          5.7130     1.4950    -1.7450 o          1 112      -0.855500
     12 O3B          5.4100    -0.9790    -1.3490 os         1 112      -0.807800
     13 PA           8.3320     0.7790     0.2340 p5         1 112       1.651800
     14 O1A          7.8950     1.1440     1.6120 o          1 112      -0.668500
     15 O2A          8.7880     1.8280    -0.7200 o          1 112      -0.668500
     16 O3A          7.2160     0.0170    -0.4680 os         1 112      -0.817800
     17 O5'          9.5040    -0.3490     0.4030 os         1 112      -0.609200
     18 C5'          9.6040    -1.5580    -0.4010 c3         1 112       0.156400
     19 C4'         10.2310    -2.7680     0.2530 c3         1 112       0.110100
     20 O4'         11.5340    -2.3970     0.7830 os         1 112      -0.429600
     21 C3'          9.4920    -3.3360     1.4560 c3         1 112       0.116100
     22 O3'          8.4540    -4.2350     1.0720 oh         1 112      -0.645800
     23 C2'         10.6040    -4.0710     2.1890 c3         1 112       0.106100
     24 O2'         10.8820    -5.3230     1.5930 oh         1 112      -0.603800
     25 C1'         11.7920    -3.1240     1.9780 c3         1 112       0.217800
     26 N9          12.0190    -2.1750     3.0820 na         1 112      -0.261000
     27 C8          11.3920    -0.9710     3.3060 cc         1 112       0.452700
     28 N7          11.8040    -0.3530     4.3900 nd         1 112      -0.573100
     29 C5          12.7650    -1.2000     4.9170 ca         1 112      -0.208200
     30 C6          13.5770    -1.1150     6.0670 ca         1 112       0.711200
     31 N6          13.5420    -0.0950     6.9290 nv         1 112      -0.935500
     32 N1          14.4360    -2.1270     6.3070 nb         1 112      -0.803000
     33 C2          14.4670    -3.1520     5.4450 ca         1 112       0.651900
     34 N3          13.7560    -3.3480     4.3350 nb         1 112      -0.715000
     35 C4          12.9120    -2.3250     4.1230 ca         1 112       0.448800
     36 HNS1        -0.3340     0.8850    -0.3270 hn         1 112       0.466800
     37 HNS2        -0.3340    -0.7260    -0.6030 hn         1 112       0.466800
     38 H1S1         3.1080     0.5190    -1.0570 h1         1 112       0.083200
     39 H1S2         1.6500     0.5460    -2.0340 h1         1 112       0.083200
     40 H5'1        10.1820    -1.3210    -1.2860 h1         1 112       0.057200
     41 H5'2         8.6040    -1.8310    -0.7160 h1         1 112       0.057200
     42 H4'         10.3600    -3.5500    -0.4860 h1         1 112       0.086700
     43 H3'          9.1010    -2.5340     2.0710 h1         1 112       0.137700
     44 HO3'         7.8280    -4.3100     1.7730 ho         1 112       0.482000
     45 H2'         10.3720    -4.1740     3.2430 h1         1 112       0.092700
     46 HO2'        10.9060    -5.9900     2.2590 ho         1 112       0.427000
     47 H1'         12.6870    -3.7180     1.8350 h2         1 112       0.103700
     48 H8          10.6300    -0.5700     2.6490 h5         1 112       0.121800
     49 HN61        14.1450    -0.0940     7.7280 hn         1 112       0.416800
     50 HN62        12.9140     0.6690     6.7750 hn         1 112       0.416800
     51 H2          15.1740    -3.9360     5.6860 h5         1 112       0.032100
     52 HS3         -0.3340    -0.1690     0.9280 hn         1 112       0.466800
@<TRIPOS>BOND
     1     1     2 1   
     2     1    36 1   
     3     1    37 1   
     4     2     3 2   
     5     2     4 1   
     6     4     6 1   
     7     4    38 1   
     8     4    39 1   
     9     5     6 1   
    10     5     7 1   
    11     5     8 1   
    12     5    12 1   
    13     9    10 1   
    14     9    11 1   
    15     9    12 1   
    16     9    16 1   
    17    13    14 1   
    18    13    15 1   
    19    13    16 1   
    20    13    17 1   
    21    17    18 1   
    22    18    19 1   
    23    18    40 1   
    24    18    41 1   
    25    19    20 1   
    26    19    21 1   
    27    19    42 1   
    28    20    25 1   
    29    21    22 1   
    30    21    23 1   
    31    21    43 1   
    32    22    44 1   
    33    23    24 1   
    34    23    25 1   
    35    23    45 1   
    36    24    46 1   
    37    25    26 1   
    38    25    47 1   
    39    26    27 1   
    40    26    35 1   
    41    27    28 2   
    42    27    48 1   
    43    28    29 1   
    44    29    30 ar  
    45    29    35 ar  
    46    30    31 1   
    47    30    32 ar  
    48    31    49 1   
    49    31    50 1   
    50    32    33 ar  
    51    33    34 ar  
    52    33    51 1   
    53    34    35 ar  
    54    52     1 1   
@<TRIPOS>SUBSTRUCTURE
     1 112         1 TEMP              0 ****  ****    0 ROOT
