@<TRIPOS>MOLECULE
113
   36    38     1     0     0
SMALL
bcc


@<TRIPOS>ATOM
      1 C1          0.1940    0.0930    0.2350 ca        1 113      0.112100
      2 C2          1.5740   -0.0970    0.1390 ca        1 113     -0.180000
      3 C3          2.2860   -0.2840    1.3290 ca        1 113      0.099100
      4 C4          1.6560   -0.3260    2.5870 ca        1 113     -0.169600
      5 C5          0.2910   -0.0150    2.6820 ca        1 113     -0.094600
      6 C6         -0.4430    0.1520    1.4980 ca        1 113      0.064100
      7 O8          3.6700   -0.4150    1.1690 os        1 113     -0.238200
      8 C9          4.4120   -0.2460    2.3210 cc        1 113      0.133900
      9 C10         3.8970   -0.3500    3.5670 cd        1 113     -0.323400
     10 C11         2.4740   -0.6920    3.7570 c         1 113      0.619900
     11 C12         5.8580   -0.0110    2.0530 c3        1 113     -0.070200
     12 C13         6.5430    0.5170    3.3160 c3        1 113      0.145100
     13 O14         6.1520   -0.2390    4.4690 os        1 113     -0.416600
     14 C15         4.7690   -0.1470    4.7690 c3        1 113      0.402100
     15 O16        -1.7960    0.3950    1.4520 oh        1 113     -0.565100
     16 O17        -0.5020    0.2480   -0.9440 oh        1 113     -0.515100
     17 C18        -0.3780    0.2540    4.0310 c         1 113      0.928200
     18 O19         0.2950    0.8520    4.9080 o         1 113     -0.811800
     19 O20         4.6680    1.1690    5.2970 os        1 113     -0.459600
     20 C22         3.5010    1.3820    6.0820 c3        1 113      0.107700
     21 C26         8.0500    0.3840    3.2120 c3        1 113     -0.091100
     22 O30        -1.5940   -0.0790    4.1520 o         1 113     -0.811800
     23 O31         2.0760   -1.3030    4.7520 o         1 113     -0.511100
     24 H2          2.0790   -0.0940   -0.8330 ha        1 113      0.149000
     25 H121        6.3260   -0.9790    1.7310 hc        1 113      0.067200
     26 H122        5.9820    0.7280    1.2190 hc        1 113      0.067200
     27 H13         6.2500    1.5930    3.4780 h1        1 113      0.066700
     28 H15         4.5730   -0.9280    5.5570 h2        1 113      0.094700
     29 H16        -2.1610    0.2950    2.3580 ho        1 113      0.491000
     30 H17        -1.4360    0.3710   -0.7150 ho        1 113      0.436000
     31 H221        3.5220    2.4760    6.3090 h1        1 113      0.052033
     32 H222        2.5680    1.1130    5.5190 h1        1 113      0.052033
     33 H223        3.5670    0.7850    7.0250 h1        1 113      0.052033
     34 H261        8.3430   -0.6900    3.1280 hc        1 113      0.040033
     35 H262        8.5310    0.8100    4.1250 hc        1 113      0.040033
     36 H263        8.4100    0.9350    2.3120 hc        1 113      0.040033
@<TRIPOS>BOND
     1    1    2 ar
     2    1    6 ar
     3    1   16 1
     4    2    3 ar
     5    2   24 1
     6    3    4 ar
     7    3    7 1
     8    4    5 ar
     9    4   10 1
    10    5    6 ar
    11    5   17 1
    12    6   15 1
    13    7    8 1
    14    8    9 2
    15    8   11 1
    16    9   10 1
    17    9   14 1
    18   10   23 2
    19   11   12 1
    20   11   25 1
    21   11   26 1
    22   12   13 1
    23   12   21 1
    24   12   27 1
    25   13   14 1
    26   14   19 1
    27   14   28 1
    28   15   29 1
    29   16   30 1
    30   17   18 1
    31   17   22 1
    32   19   20 1
    33   20   31 1
    34   20   32 1
    35   20   33 1
    36   21   34 1
    37   21   35 1
    38   21   36 1
@<TRIPOS>SUBSTRUCTURE
     1 113         1 TEMP              0 ****  ****    0 ROOT
