@<TRIPOS>MOLECULE
114
   64    65     1     0     0
SMALL
bcc


@<TRIPOS>ATOM
      1 O1A          1.2020    -2.7060    -0.5690 o          1 114      -0.851300
      2 O1B          0.8480    -0.6100    -1.2490 o          1 114      -0.851300
      3 O3           1.8720    -3.0620     2.1170 oh         1 114      -0.655800
      4 O5           4.8940    -1.9910     4.6340 oh         1 114      -0.623800
      5 O14          6.1830    -5.5910    -0.1190 os         1 114      -0.422900
      6 O18          4.8620    -7.1910     0.7000 o          1 114      -0.576000
      7 C1           1.2230    -1.4480    -0.3850 c          1 114       0.908600
      8 C2           1.7320    -0.9250     0.9670 c3         1 114      -0.233400
      9 C3           2.6260    -1.9510     1.6430 c3         1 114       0.163100
     10 C4           3.3650    -1.3720     2.8470 c3         1 114      -0.111400
     11 C5           4.4780    -2.3110     3.3050 c3         1 114       0.137100
     12 C6           5.7210    -2.1920     2.4260 c3         1 114      -0.077400
     13 C7           6.4270    -3.5230     2.2720 c3         1 114      -0.076400
     14 C8           7.5130    -3.4800     1.2080 c3         1 114      -0.051700
     15 C9           8.5640    -2.4010     1.4980 c3         1 114      -0.034500
     16 C10          9.6810    -2.4680     0.5140 c2         1 114      -0.151200
     17 C11          9.9530    -3.5600    -0.2120 ce         1 114      -0.136000
     18 C12          9.1810    -4.7890    -0.1030 ce         1 114      -0.069200
     19 C17          9.3900    -5.8140    -0.9500 c2         1 114      -0.163200
     20 C16          8.6150    -7.0740    -0.9220 c3         1 114      -0.039200
     21 C15          7.8770    -7.2680     0.3850 c3         1 114      -0.101400
     22 C14          7.1770    -5.9930     0.8420 c3         1 114       0.154100
     23 C13          8.1810    -4.8460     1.0140 c3         1 114      -0.012500
     24 C9A          9.1240    -2.4580     2.9070 c3         1 114      -0.087100
     25 C19          3.9530    -5.7730    -1.0850 c3         1 114      -0.092700
     26 C20          4.4470    -4.6890    -2.0300 c3         1 114      -0.061400
     27 C21          4.4260    -3.3070    -1.4320 c3         1 114      -0.117100
     28 C22          2.7060    -5.3540    -0.3310 c3         1 114      -0.106100
     29 HO3          1.3380    -3.3620     1.3590 ho         1 114       0.450000
     30 HO5          4.1060    -2.0410     5.1860 ho         1 114       0.394000
     31 H21          2.2930     0.0270     0.8030 hc         1 114       0.038700
     32 H22          0.8460    -0.7060     1.6130 hc         1 114       0.038700
     33 H3           3.3760    -2.3300     0.8870 h1         1 114       0.035700
     34 H41          2.6370    -1.2220     3.6860 hc         1 114       0.043200
     35 H42          3.7910    -0.3730     2.5770 hc         1 114       0.043200
     36 H5           4.0830    -3.3680     3.2940 h1         1 114       0.056700
     37 H61          5.4180    -1.8150     1.4130 hc         1 114       0.053200
     38 H62          6.4130    -1.4350     2.8820 hc         1 114       0.053200
     39 H71          5.6650    -4.2930     1.9650 hc         1 114       0.047200
     40 H72          6.8560    -3.8440     3.2560 hc         1 114       0.047200
     41 H8           7.0190    -3.2130     0.2280 hc         1 114       0.077700
     42 H9           8.0510    -1.4020     1.3710 hc         1 114       0.059700
     43 H10         10.2850    -1.5530     0.4180 ha         1 114       0.115000
     44 H11         10.7800    -3.5650    -0.9420 ha         1 114       0.116000
     45 H17         10.1470    -5.7400    -1.7460 ha         1 114       0.114000
     46 H161         7.8710    -7.0480    -1.7670 hc         1 114       0.047200
     47 H162         9.2970    -7.9470    -1.1020 hc         1 114       0.047200
     48 H151         7.1110    -8.0800     0.2730 hc         1 114       0.054200
     49 H152         8.5960    -7.5770     1.1870 hc         1 114       0.054200
     50 H14          6.6640    -6.1910     1.8270 h1         1 114       0.068700
     51 H13          8.7540    -5.0920     1.9580 hc         1 114       0.055700
     52 H9A1         8.3250    -2.2290     3.6530 hc         1 114       0.035033
     53 H9A2         9.5410    -3.4680     3.1320 hc         1 114       0.035033
     54 H9A3         9.9420    -1.7060     3.0230 hc         1 114       0.035033
     55 H19          3.7090    -6.6860    -1.7060 hc         1 114       0.057700
     56 H201         3.7850    -4.7000    -2.9380 hc         1 114       0.036700
     57 H202         5.4880    -4.9450    -2.3650 hc         1 114       0.036700
     58 H211         4.9110    -2.5830    -2.1310 hc         1 114       0.053033
     59 H212         4.9850    -3.2950    -0.4630 hc         1 114       0.053033
     60 H213         3.3700    -2.9700    -1.2450 hc         1 114       0.053033
     61 H221         1.9600    -4.9020    -1.0340 hc         1 114       0.066700
     62 H222         2.2560    -6.2350     0.1840 hc         1 114       0.066700
     63 H223         2.9420    -4.5710     0.4340 hc         1 114       0.066700
     64 C18          4.9840    -6.2540    -0.0970 c          1 114       0.635100
@<TRIPOS>BOND
     1     1     7 1   
     2     2     7 1   
     3     3     9 1   
     4     3    29 1   
     5     4    11 1   
     6     4    30 1   
     7     5    22 1   
     8     5    64 1   
     9     6    64 2   
    10     7     8 1   
    11     8     9 1   
    12     8    31 1   
    13     8    32 1   
    14     9    10 1   
    15     9    33 1   
    16    10    11 1   
    17    10    34 1   
    18    10    35 1   
    19    11    12 1   
    20    11    36 1   
    21    12    13 1   
    22    12    37 1   
    23    12    38 1   
    24    13    14 1   
    25    13    39 1   
    26    13    40 1   
    27    14    15 1   
    28    14    23 1   
    29    14    41 1   
    30    15    16 1   
    31    15    24 1   
    32    15    42 1   
    33    16    17 2   
    34    16    43 1   
    35    17    18 1   
    36    17    44 1   
    37    18    19 2   
    38    18    23 1   
    39    19    20 1   
    40    19    45 1   
    41    20    21 1   
    42    20    46 1   
    43    20    47 1   
    44    21    22 1   
    45    21    48 1   
    46    21    49 1   
    47    22    23 1   
    48    22    50 1   
    49    23    51 1   
    50    24    52 1   
    51    24    53 1   
    52    24    54 1   
    53    25    26 1   
    54    25    28 1   
    55    25    55 1   
    56    25    64 1   
    57    26    27 1   
    58    26    56 1   
    59    26    57 1   
    60    27    58 1   
    61    27    59 1   
    62    27    60 1   
    63    28    61 1   
    64    28    62 1   
    65    28    63 1   
@<TRIPOS>SUBSTRUCTURE
     1 114         1 TEMP              0 ****  ****    0 ROOT
