@<TRIPOS>MOLECULE
molecule
   64    65     1     0     0
SMALL
bcc


@<TRIPOS>ATOM
      1 O1A          0.0000     0.0000     0.0000 o          1 114      -0.859800
      2 O1B          1.8790     0.0000    -1.1630 o          1 114      -0.859800
      3 O3           0.2260     1.2210     2.4600 oh         1 114      -0.624800
      4 O5          -0.0230     0.9580     5.0540 oh         1 114      -0.595800
      5 O14         -1.1910    -1.8460     8.3310 os         1 114      -0.401900
      6 O18         -3.3680    -1.6230     8.6380 o          1 114      -0.560000
      7 C1           1.2080     0.0000     0.0000 c          1 114       0.897600
      8 C2           1.9620     0.0000     1.3040 c3         1 114      -0.208400
      9 C3           0.9680    -0.0000     2.4680 c3         1 114       0.166100
     10 C4           1.7290    -0.1250     3.7890 c3         1 114      -0.103400
     11 C5           0.7320    -0.2500     4.9420 c3         1 114       0.151100
     12 C6           1.4900    -0.5020     6.2470 c3         1 114      -0.102400
     13 C7           0.4900    -0.7510     7.3790 c3         1 114      -0.083400
     14 C8           1.2480    -1.0010     8.6840 c3         1 114      -0.045700
     15 C9           2.4270    -0.0320     8.7870 c3         1 114      -0.041500
     16 C10          3.0480    -0.0570    10.1500 c2         1 114      -0.142200
     17 C11          2.4450    -0.5170    11.2320 ce         1 114      -0.151000
     18 C12          1.0750    -1.0680    11.1300 ce         1 114      -0.067200
     19 C17          0.5900    -1.7880    12.1240 c2         1 114      -0.182200
     20 C16         -0.7770    -2.4150    12.0300 c3         1 114      -0.040200
     21 C15         -1.0180    -2.7870    10.5610 c3         1 114      -0.096400
     22 C14         -0.9920    -1.5060     9.7290 c3         1 114       0.149100
     23 C13          0.3150    -0.7650     9.8720 c3         1 114      -0.026500
     24 C9A          1.9350     1.3850     8.4870 c3         1 114      -0.092100
     25 C19         -2.7410    -2.2190     6.4460 c3         1 114      -0.118700
     26 C20         -4.2510    -2.1790     6.2010 c3         1 114      -0.070400
     27 C21         -4.5320    -2.4070     4.7140 c3         1 114      -0.095100
     28 C22         -2.2120    -3.6220     6.1440 c3         1 114      -0.089100
     29 HO3         -0.5170     1.1340     1.8850 ho         1 114       0.423000
     30 HO5         -0.8930     0.8170     4.7200 ho         1 114       0.399000
     31 H21          2.5840     0.8850     1.3610 hc         1 114       0.039200
     32 H22          2.5850    -0.8840     1.3610 hc         1 114       0.039200
     33 H3           0.2880    -0.8370     2.3620 h1         1 114       0.027700
     34 H41          2.3600    -1.0050     3.7600 hc         1 114       0.049700
     35 H42          2.3430     0.7550     3.9360 hc         1 114       0.049700
     36 H5           0.0600    -1.0790     4.7500 h1         1 114       0.017700
     37 H61          2.1290    -1.3690     6.1320 hc         1 114       0.049200
     38 H62          2.0960     0.3640     6.4850 hc         1 114       0.049200
     39 H71         -0.1160    -1.6170     7.1410 hc         1 114       0.066200
     40 H72         -0.1490     0.1160     7.4930 hc         1 114       0.066200
     41 H8           1.6140    -2.0200     8.7080 hc         1 114       0.054700
     42 H9           3.1760    -0.3120     8.0560 hc         1 114       0.063700
     43 H10          4.0540     0.3310    10.2560 ha         1 114       0.115000
     44 H11          2.9860    -0.5790    12.1690 ha         1 114       0.124000
     45 H17          1.1810    -1.9260    13.0220 ha         1 114       0.122000
     46 H161        -1.5280    -1.7060    12.3560 hc         1 114       0.049700
     47 H162        -0.8140    -3.3070    12.6440 hc         1 114       0.049700
     48 H151        -1.9850    -3.2660    10.4610 hc         1 114       0.055200
     49 H152        -0.2370    -3.4570    10.2220 hc         1 114       0.055200
     50 H14         -1.7970    -0.8600    10.0560 h1         1 114       0.070700
     51 H13          0.0790     0.2920     9.8890 hc         1 114       0.067700
     52 H9A1         2.0690     2.0070     9.3640 hc         1 114       0.043367
     53 H9A2         0.8850     1.3550     8.2220 hc         1 114       0.043367
     54 H9A3         2.5040     1.7980     7.6620 hc         1 114       0.043367
     55 H19         -2.2510    -1.5010     5.8000 hc         1 114       0.083700
     56 H201        -4.6400    -1.2130     6.4980 hc         1 114       0.052700
     57 H202        -4.7310    -2.9570     6.7820 hc         1 114       0.052700
     58 H211        -4.4590    -3.4640     4.4900 hc         1 114       0.038033
     59 H212        -5.5290    -2.0560     4.4770 hc         1 114       0.038033
     60 H213        -3.8070    -1.8610     4.1220 hc         1 114       0.038033
     61 H221        -2.8720    -4.3600     6.5840 hc         1 114       0.045367
     62 H222        -1.2180    -3.7320     6.5620 hc         1 114       0.045367
     63 H223        -2.1700    -3.7690     5.0710 hc         1 114       0.045367
     64 C18         -2.4570    -1.8740     7.8850 c          1 114       0.621100
@<TRIPOS>BOND
     1     1     7 1
     2     2     7 1
     3     3     9 1
     4     3    29 1
     5     4    11 1
     6     4    30 1
     7     5    22 1
     8     5    64 1
     9     6    64 2
    10     7     8 1
    11     8     9 1
    12     8    31 1
    13     8    32 1
    14     9    10 1
    15     9    33 1
    16    10    11 1
    17    10    34 1
    18    10    35 1
    19    11    12 1
    20    11    36 1
    21    12    13 1
    22    12    37 1
    23    12    38 1
    24    13    14 1
    25    13    39 1
    26    13    40 1
    27    14    15 1
    28    14    23 1
    29    14    41 1
    30    15    16 1
    31    15    24 1
    32    15    42 1
    33    16    17 2
    34    16    43 1
    35    17    18 1
    36    17    44 1
    37    18    19 2
    38    18    23 1
    39    19    20 1
    40    19    45 1
    41    20    21 1
    42    20    46 1
    43    20    47 1
    44    21    22 1
    45    21    48 1
    46    21    49 1
    47    22    23 1
    48    22    50 1
    49    23    51 1
    50    24    52 1
    51    24    53 1
    52    24    54 1
    53    64    25 1
    54    25    26 1
    55    25    28 1
    56    25    55 1
    57    26    27 1
    58    26    56 1
    59    26    57 1
    60    27    58 1
    61    27    59 1
    62    27    60 1
    63    28    61 1
    64    28    62 1
    65    28    63 1
@<TRIPOS>SUBSTRUCTURE
     1 114         1 TEMP              0 ****  ****    0 ROOT
