@<TRIPOS>MOLECULE
114
   64    65     1     0     0
SMALL
bcc


@<TRIPOS>ATOM
      1 O1A         0.1900    1.2050    1.3690 os        1 114     -0.305000
      2 O1B         0.6580    0.2920   -0.5280 o         1 114     -0.330000
      3 O3          1.4600    2.7160    2.4360 oh        1 114     -0.348000
      4 O5          0.2680    2.1070    5.4100 oh        1 114     -0.336000
      5 O14        -1.4030   -2.4140    8.5070 os        1 114     -0.290000
      6 O18        -3.4730   -1.6060    8.1340 o         1 114     -0.412000
      7 C1          1.1270    0.6000    0.5720 c2        1 114      0.315000
      8 C2          2.5270    0.3630    1.0180 c3        1 114     -0.260000
      9 C3          0.5080    1.7070    2.6650 c3        1 114      0.165000
     10 C4          1.0790    0.6830    3.6370 c3        1 114     -0.214000
     11 C5          0.3710    0.7550    4.9930 c3        1 114      0.028000
     12 C6          1.1060   -0.1220    6.0000 c3        1 114     -0.190000
     13 C7          0.3700   -0.1920    7.3220 c3        1 114     -0.157000
     14 C8          1.1250   -0.9990    8.3770 c3        1 114      0.044000
     15 C9          2.5060   -0.3780    8.6660 c3        1 114     -0.057000
     16 C10         3.1460   -1.0290    9.8460 c2        1 114     -0.213000
     17 C11         2.4110   -1.5000   10.8610 c2        1 114     -0.083000
     18 C12         0.9490   -1.4170   10.8450 c2        1 114      0.106000
     19 C17         0.2690   -1.4860   12.0340 c2        1 114     -0.442000
     20 C16        -1.1890   -1.2840   12.0580 c3        1 114     -0.044000
     21 C15        -1.8410   -1.7980   10.7920 c3        1 114     -0.165000
     22 C14        -1.1350   -1.3430    9.5150 c3        1 114      0.183000
     23 C13         0.3200   -1.2140    9.6040 c2        1 114     -0.492000
     24 C9A         2.4440    1.1210    8.9010 c3        1 114     -0.194000
     25 C19        -2.7260   -3.6110    6.9270 c3        1 114     -0.111000
     26 C20        -3.9160   -3.3960    6.0060 c3        1 114     -0.155000
     27 C21        -3.8530   -4.2690    4.7800 c3        1 114     -0.208000
     28 C22        -2.8340   -4.9070    7.7030 c3        1 114     -0.203000
     29 HO3         1.0010    3.4670    2.0420 ho        1 114      0.215000
     30 HO5         1.0360    2.3060    5.9600 ho        1 114      0.208000
     31 H21         2.9290    1.2580    1.5540 hc        1 114      0.116333
     32 H22         3.1660    0.1440    0.1280 hc        1 114      0.116333
     33 H3          2.5560   -0.5170    1.7070 hc        1 114      0.116333
     34 H41        -0.4810    2.1180    3.0270 h2        1 114      0.140000
     35 H42         2.1760    0.8690    3.7730 hc        1 114      0.103500
     36 H5          0.9390   -0.3450    3.2150 hc        1 114      0.103500
     37 H61        -0.6990    0.4170    4.8810 h1        1 114      0.115000
     38 H62         2.1390    0.2910    6.1490 hc        1 114      0.081000
     39 H71         1.2140   -1.1530    5.5750 hc        1 114      0.081000
     40 H72        -0.6260   -0.6780    7.1420 hc        1 114      0.085500
     41 H8          0.1680    0.8430    7.7020 hc        1 114      0.085500
     42 H9          1.3390   -2.0110    7.9090 hc        1 114      0.038000
     43 H10         3.1620   -0.5650    7.7670 hc        1 114      0.044000
     44 H11         4.2430   -1.0690    9.8440 ha        1 114      0.087000
     45 H17         2.8740   -1.9610   11.7470 ha        1 114      0.097000
     46 H161        0.7790   -1.6470   12.9860 ha        1 114      0.084000
     47 H162       -1.4250   -0.1890   12.1780 hc        1 114      0.033000
     48 H151       -1.6490   -1.8070   12.9400 hc        1 114      0.033000
     49 H152       -2.9130   -1.4720   10.7440 hc        1 114      0.064500
     50 H14        -1.8320   -2.9210   10.8140 hc        1 114      0.064500
     51 H13        -1.6300   -0.4180    9.1020 h1        1 114      0.061000
     52 H9A1        1.6450    1.3520    9.6460 hc        1 114      0.061333
     53 H9A2        3.4220    1.4950    9.2920 hc        1 114      0.061333
     54 H9A3        2.2180    1.6630    7.9510 hc        1 114      0.061333
     55 H19        -1.7810   -3.6330    6.3140 hc        1 114      0.108000
     56 H201       -3.9460   -2.3160    5.6990 hc        1 114      0.091000
     57 H202       -4.8630   -3.5960    6.5730 hc        1 114      0.091000
     58 H211       -3.8550   -5.3500    5.0590 hc        1 114      0.065333
     59 H212       -4.7350   -4.0740    4.1230 hc        1 114      0.065333
     60 H213       -2.9250   -4.0610    4.1930 hc        1 114      0.065333
     61 H221       -2.8300   -5.7770    7.0030 hc        1 114      0.078000
     62 H222       -1.9670   -5.0000    8.4030 hc        1 114      0.078000
     63 H223       -3.7770   -4.9330    8.2990 hc        1 114      0.078000
     64 C18        -2.5990   -2.4550    7.9020 c2        1 114      0.293000
@<TRIPOS>BOND
     1    1    7 1   
     2    1    9 1   
     3    2    7 1   
     4    3    9 1   
     5    3   29 1   
     6    4   11 1   
     7    4   30 1   
     8    5   22 1   
     9    5   64 1   
    10    6   64 1   
    11    7    8 1   
    12    8   31 1   
    13    8   32 1   
    14    8   33 1   
    15    9   10 1   
    16    9   34 1   
    17   10   11 1   
    18   10   35 1   
    19   10   36 1   
    20   11   12 1   
    21   11   37 1   
    22   12   13 1   
    23   12   38 1   
    24   12   39 1   
    25   13   14 1   
    26   13   40 1   
    27   13   41 1   
    28   14   15 1   
    29   14   23 1   
    30   14   42 1   
    31   15   16 1   
    32   15   24 1   
    33   15   43 1   
    34   16   17 1   
    35   16   44 1   
    36   17   18 1   
    37   17   45 1   
    38   18   19 1   
    39   18   23 1   
    40   19   20 1   
    41   19   46 1   
    42   20   21 1   
    43   20   47 1   
    44   20   48 1   
    45   21   22 1   
    46   21   49 1   
    47   21   50 1   
    48   22   23 1   
    49   22   51 1   
    50   24   52 1   
    51   24   53 1   
    52   24   54 1   
    53   25   26 1   
    54   25   28 1   
    55   25   55 1   
    56   25   64 1   
    57   26   27 1   
    58   26   56 1   
    59   26   57 1   
    60   27   58 1   
    61   27   59 1   
    62   27   60 1   
    63   28   61 1   
    64   28   62 1   
    65   28   63 1   
@<TRIPOS>SUBSTRUCTURE
     1 114         1 TEMP              0 ****  ****    0 ROOT
