@<TRIPOS>MOLECULE
115
   55    57     1     0     0
SMALL
bcc


@<TRIPOS>ATOM
      1 C10          0.0950    -0.4240    -0.3160 ca         1 115      -0.078800
      2 C15          1.5210    -0.1890    -0.3820 ca         1 115      -0.035200
      3 C14          2.3140    -0.3000     0.7720 ca         1 115      -0.148000
      4 C13          1.6960    -0.6590     1.9590 ca         1 115      -0.126000
      5 C12          0.3160    -0.9130     2.0230 ca         1 115      -0.169000
      6 C11         -0.4850    -0.8000     0.8970 ca         1 115      -0.082000
      7 C8          -0.4280    -0.2060    -1.6500 cc         1 115      -0.071400
      8 C9           0.6650     0.1170    -2.4710 cd         1 115       0.015900
      9 N1           1.8530     0.1190    -1.7080 na         1 115      -0.058400
     10 C83         -4.1540     0.1270    -1.4840 ca         1 115      -0.166500
     11 C82         -2.8070     0.2170    -1.1570 ca         1 115      -0.113000
     12 C81         -1.8220    -0.2870    -2.0220 ca         1 115      -0.037800
     13 C86         -2.2220    -0.8730    -3.2320 ca         1 115      -0.113000
     14 C85         -3.5660    -0.9880    -3.5750 ca         1 115      -0.166500
     15 C84         -4.5390    -0.4820    -2.6940 ca         1 115       0.111900
     16 F1          -5.8560    -0.5740    -3.0010 f          1 115      -0.147900
     17 O1B         -2.5720    -3.1370    -8.0430 o          1 115      -0.844800
     18 O1A         -3.8980    -2.6700    -6.3050 o          1 115      -0.844800
     19 O3           0.1800    -2.8500    -7.3570 oh         1 115      -0.656800
     20 C2          -1.6490    -3.4000    -5.8390 c3         1 115      -0.241400
     21 C3          -0.4490    -2.5120    -6.1270 c3         1 115       0.165100
     22 C4           0.6110    -2.6260    -5.0330 c3         1 115      -0.077400
     23 C5           1.6250    -1.4890    -5.1450 c3         1 115       0.166300
     24 C6           0.9900    -0.1460    -4.9680 c2         1 115      -0.161200
     25 C7           0.5990     0.5060    -3.8700 cf         1 115      -0.124000
     26 C91          3.1360     0.5840    -2.1820 c3         1 115       0.062000
     27 C92          3.5530     1.9320    -1.5860 c3         1 115      -0.114600
     28 C93          4.2710    -0.4220    -1.9680 c3         1 115      -0.114600
     29 O5           2.6510    -1.7570    -4.1960 oh         1 115      -0.597800
     30 H1           3.3950    -0.1110     0.7370 ha         1 115       0.125000
     31 H2           2.3000    -0.7540     2.8740 ha         1 115       0.117000
     32 H3          -0.1300    -1.2090     2.9830 ha         1 115       0.120000
     33 H4          -1.5640    -1.0100     0.9450 ha         1 115       0.139000
     34 H5          -4.9220     0.5250    -0.8080 ha         1 115       0.179500
     35 H6          -2.5070     0.6930    -0.2120 ha         1 115       0.141000
     36 H7          -1.4590    -1.2570    -3.9320 ha         1 115       0.141000
     37 H8          -3.8600    -1.4860    -4.5280 ha         1 115       0.179500
     38 H10         -0.5370    -3.0390    -7.9900 ho         1 115       0.457000
     39 H11         -1.3730    -4.4730    -5.9880 hc         1 115       0.041200
     40 H12         -1.9900    -3.2580    -4.7840 hc         1 115       0.041200
     41 H13         -0.8010    -1.4400    -6.1990 h1         1 115       0.024700
     42 H14          0.1290    -2.6060    -4.0240 hc         1 115       0.060700
     43 H15          1.1570    -3.5980    -5.1380 hc         1 115       0.060700
     44 H16          2.0750    -1.5270    -6.1840 h1         1 115       0.053700
     45 H17          0.7720     0.3350    -5.9430 ha         1 115       0.130000
     46 H18          0.0890     1.4840    -3.9950 ha         1 115       0.132000
     47 H19          3.0140     0.7270    -3.3020 h1         1 115       0.064700
     48 H20          2.8040     2.7230    -1.8270 hc         1 115       0.045200
     49 H21          4.5390     2.2260    -2.0180 hc         1 115       0.045200
     50 H22          3.6520     1.8630    -0.4760 hc         1 115       0.045200
     51 H23          5.1300    -0.1290    -2.6170 hc         1 115       0.045200
     52 H24          4.6120    -0.4230    -0.9060 hc         1 115       0.045200
     53 H25          3.9490    -1.4580    -2.2400 hc         1 115       0.045200
     54 H26          3.3560    -1.1230    -4.3720 ho         1 115       0.383000
     55 C1          -2.7980    -3.0460    -6.7990 c          1 115       0.909600
@<TRIPOS>BOND
     1     1     2 ar  
     2     1     6 ar  
     3     1     7 1   
     4     2     3 ar  
     5     2     9 1   
     6     3     4 ar  
     7     3    30 1   
     8     4     5 ar  
     9     4    31 1   
    10     5     6 ar  
    11     5    32 1   
    12     6    33 1   
    13     7     8 2   
    14     7    12 1   
    15     8     9 1   
    16     8    25 1   
    17     9    26 1   
    18    10    11 ar  
    19    10    15 ar  
    20    10    34 1   
    21    11    12 ar  
    22    11    35 1   
    23    12    13 ar  
    24    13    14 ar  
    25    13    36 1   
    26    14    15 ar  
    27    14    37 1   
    28    15    16 1   
    29    17    55 1   
    30    18    55 1   
    31    19    21 1   
    32    19    38 1   
    33    20    21 1   
    34    20    39 1   
    35    20    40 1   
    36    20    55 1   
    37    21    22 1   
    38    21    41 1   
    39    22    23 1   
    40    22    42 1   
    41    22    43 1   
    42    23    24 1   
    43    23    29 1   
    44    23    44 1   
    45    24    25 2   
    46    24    45 1   
    47    25    46 1   
    48    26    27 1   
    49    26    28 1   
    50    26    47 1   
    51    27    48 1   
    52    27    49 1   
    53    27    50 1   
    54    28    51 1   
    55    28    52 1   
    56    28    53 1   
    57    29    54 1   
@<TRIPOS>SUBSTRUCTURE
     1 115         1 TEMP              0 ****  ****    0 ROOT
