@<TRIPOS>MOLECULE
molecule
   55    57     1     0     0
SMALL
bcc


@<TRIPOS>ATOM
      1 C10          0.0000     0.0000     0.0000 ca         1 115      -0.082800
      2 C15          1.4060     0.0000     0.0000 ca         1 115      -0.036200
      3 C14          2.0860     0.0000     1.2130 ca         1 115      -0.139000
      4 C13          1.3790    -0.0000     2.3960 ca         1 115      -0.123000
      5 C12         -0.0100    -0.0000     2.3900 ca         1 115      -0.162000
      6 C11         -0.6970    -0.0000     1.2100 ca         1 115      -0.085000
      7 C8          -0.4150    -0.0070    -1.4100 cc         1 115      -0.130400
      8 C9           0.7450    -0.0030    -2.1590 cc         1 115       0.027900
      9 N1           1.8300    -0.0000    -1.3120 na         1 115      -0.058400
     10 C83         -3.9150    -1.1250    -2.1910 ca         1 115      -0.170500
     11 C82         -2.6220    -1.1230    -1.7100 ca         1 115      -0.094000
     12 C81         -1.8030    -0.0140    -1.9250 ca         1 115      -0.010800
     13 C86         -2.2950     1.0870    -2.6260 ca         1 115      -0.094000
     14 C85         -3.5900     1.0750    -3.1030 ca         1 115      -0.170500
     15 C84         -4.3990    -0.0290    -2.8870 ca         1 115       0.121900
     16 F1          -5.6640    -0.0380    -3.3610 f          1 115      -0.148900
     17 O1B          0.9260    -3.1800   -10.3030 o          1 115      -0.858800
     18 O1A          1.5640    -5.2920   -10.1920 o          1 115      -0.858800
     19 O3           1.8970    -1.6250    -8.2460 oh         1 115      -0.608800
     20 C2           1.3290    -3.9700    -8.1200 c3         1 115      -0.203400
     21 C3           0.9340    -2.5450    -7.7290 c3         1 115       0.168100
     22 C4           0.8840    -2.4290    -6.2040 c3         1 115      -0.093400
     23 C5           0.3700    -1.0420    -5.8140 c3         1 115       0.175300
     24 C6           0.2050    -0.9700    -4.3170 c2         1 115      -0.136200
     25 C7           0.8110    -0.0070    -3.6270 ce         1 115      -0.155000
     26 C91          3.2300     0.0040    -1.7420 c3         1 115       0.050000
     27 C92          3.9250     1.2550    -1.2020 c3         1 115      -0.109100
     28 C93          3.9330    -1.2440    -1.2030 c3         1 115      -0.109100
     29 O5           1.3060    -0.0500    -6.2390 oh         1 115      -0.587800
     30 H1           3.1690    -0.0000     1.2290 ha         1 115       0.125000
     31 H2           1.9110    -0.0010     3.3400 ha         1 115       0.122000
     32 H3          -0.5520    -0.0010     3.3280 ha         1 115       0.121000
     33 H4          -1.7800    -0.0000     1.2120 ha         1 115       0.129000
     34 H5          -4.5530    -1.9850    -2.0250 ha         1 115       0.140500
     35 H6          -2.2440    -1.9800    -1.1660 ha         1 115       0.142500
     36 H7          -1.6620     1.9490    -2.7940 ha         1 115       0.142500
     37 H8          -3.9730     1.9290    -3.6480 ha         1 115       0.140500
     38 H10          1.5580    -1.2210    -9.0280 ho         1 115       0.413000
     39 H11          0.6490    -4.6740    -7.6550 hc         1 115       0.038200
     40 H12          2.3400    -4.1690    -7.7850 hc         1 115       0.038200
     41 H13         -0.0420    -2.3150    -8.1390 h1         1 115       0.031700
     42 H14          1.8790    -2.5710    -5.7980 hc         1 115       0.053200
     43 H15          0.2200    -3.1860    -5.8050 hc         1 115       0.053200
     44 H16         -0.5860    -0.8640    -6.2920 h1         1 115       0.040700
     45 H17         -0.3370    -1.7500    -3.7960 ha         1 115       0.136000
     46 H18          1.4220     0.7250    -4.1420 ha         1 115       0.155000
     47 H19          3.2750     0.0040    -2.8240 h1         1 115       0.088700
     48 H20          3.2060     2.0610    -1.1200 hc         1 115       0.046033
     49 H21          4.7200     1.5470    -1.8780 hc         1 115       0.046033
     50 H22          4.3430     1.0430    -0.2250 hc         1 115       0.046033
     51 H23          4.7120    -1.5450    -1.8930 hc         1 115       0.046033
     52 H24          3.2140    -2.0470    -1.0980 hc         1 115       0.046033
     53 H25          4.3710    -1.0220    -0.2370 hc         1 115       0.046033
     54 H26          0.8610     0.6040    -6.7510 ho         1 115       0.395000
     55 C1           1.2580    -4.1170    -9.6180 c          1 115       0.898600
@<TRIPOS>BOND
     1    29    23 1
     2    27    26 1
     3    28    26 1
     4    26     9 1
     5    23    22 1
     6    23    24 1
     7    22    21 1
     8    24    25 2
     9     9     8 1
    10     9     2 1
    11    25     8 1
    12    21    20 1
    13    21    19 1
    14    20    55 1
    15     3     2 ar
    16     3     4 ar
    17     8     7 2
    18     2     1 ar
    19     4     5 ar
    20    55    17 1
    21    55    18 1
    22     7     1 1
    23     7    12 1
    24     1     6 ar
    25     5     6 ar
    26    12    13 ar
    27    12    11 ar
    28    13    14 ar
    29    11    10 ar
    30    14    15 ar
    31    10    15 ar
    32    15    16 1
    33     3    30 1
    34     4    31 1
    35     5    32 1
    36     6    33 1
    37    10    34 1
    38    11    35 1
    39    13    36 1
    40    14    37 1
    41    19    38 1
    42    20    39 1
    43    20    40 1
    44    21    41 1
    45    22    42 1
    46    22    43 1
    47    23    44 1
    48    24    45 1
    49    25    46 1
    50    26    47 1
    51    27    48 1
    52    27    49 1
    53    27    50 1
    54    28    51 1
    55    28    52 1
    56    28    53 1
    57    29    54 1
@<TRIPOS>SUBSTRUCTURE
     1 115         1 TEMP              0 ****  ****    0 ROOT
