@<TRIPOS>MOLECULE
115
   57    57     1     0     0
SMALL
bcc


@<TRIPOS>ATOM
      1 C10         0.3920    0.0380   -0.2340 c2        1 115     -0.134000
      2 C15         1.7760   -0.2420   -0.1980 c2        1 115      0.019000
      3 C14         2.5240   -0.3980    1.0750 c3        1 115     -0.103000
      4 C13         1.6330   -0.3750    2.2640 c2        1 115     -0.189000
      5 C12         0.3070   -0.1460    2.1690 c2        1 115     -0.153000
      6 C11        -0.3210    0.2780    0.9420 c1        1 115     -0.071000
      7 C8         -0.0120    0.1480   -1.6500 c2        1 115      0.000000
      8 C9          1.2430   -0.1130   -2.4280 c2        1 115      0.073000
      9 N1          2.3170   -0.3540   -1.4850 na        1 115     -0.188000
     10 C83        -5.4260   -1.4290   -2.2480 c2        1 115     -0.112000
     11 C82        -5.3850   -1.2350   -0.9290 c2        1 115     -0.251000
     12 C81        -1.1780    0.3940   -2.1630 c1        1 115     -0.361000
     13 C86        -2.4450    0.6950   -2.4880 c2        1 115      0.154000
     14 C85        -3.4310   -0.1250   -2.8530 c1        1 115     -0.455000
     15 C84        -4.4340   -0.8920   -3.1860 c2        1 115      0.088000
     16 F1         -4.6630   -1.2710   -4.4920 f         1 115     -0.180000
     17 O1B         2.2400   -4.8350   -9.9980 o         1 115     -0.225000
     18 O1A         3.1780   -2.6550  -10.1790 o         1 115     -0.225000
     19 O3          1.8110   -2.7600   -7.9970 oh        1 115     -0.385000
     20 C2          0.5870   -4.4850   -6.9540 c3        1 115     -0.216000
     21 C3          0.6550   -2.9870   -7.1920 c3        1 115      0.042000
     22 C4          0.7280   -2.2220   -5.8770 c3        1 115     -0.222000
     23 C5          0.4730   -0.7300   -6.0560 c3        1 115      0.025000
     24 C6          0.2690   -0.0320   -4.7160 c3        1 115     -0.140000
     25 C7          1.3840   -0.2290   -3.7680 c2        1 115     -0.272000
     26 C91         3.6790    0.0280   -1.8090 c3        1 115      0.015000
     27 C92         4.0220    1.4900   -1.5130 c3        1 115     -0.228000
     28 C93         4.7330   -0.8680   -1.1540 c3        1 115     -0.228000
     29 O5          1.5140   -0.1340   -6.8260 oh        1 115     -0.358000
     30 H14         3.0700   -1.3840    1.0580 hc        1 115      0.107000
     31 H13         3.3000    0.4130    1.1750 hc        1 115      0.107000
     32 H12         2.1380   -0.5480    3.2260 ha        1 115      0.105000
     33 H11        -0.3430   -0.2000    3.0570 ha        1 115      0.125000
     34 H83        -6.1430   -1.6510   -0.2550 ha        1 115      0.107500
     35 H82        -6.2310   -2.0230   -2.7130 ha        1 115      0.096000
     36 H86        -4.5850   -0.6540   -0.4510 ha        1 115      0.107500
     37 H85        -2.6840    1.7840   -2.5010 ha        1 115      0.115000
     38 HO3         1.9470   -1.8040   -8.0480 ho        1 115      0.232000
     39 H21         0.7270   -5.0290   -7.9200 hc        1 115      0.081667
     40 H22        -0.4050   -4.7490   -6.5180 hc        1 115      0.081667
     41 H3          1.3910   -4.8030   -6.2500 hc        1 115      0.081667
     42 H41        -0.2510   -2.6510   -7.7760 h1        1 115      0.072000
     43 H42         1.7370   -2.3780   -5.4150 hc        1 115      0.106500
     44 H5         -0.0430   -2.6300   -5.1730 hc        1 115      0.106500
     45 H61        -0.4450   -0.5730   -6.6940 h1        1 115      0.108000
     46 H62        -0.6970   -0.4010   -4.2630 hc        1 115      0.122000
     47 H71         0.1350    1.0690   -4.9080 hc        1 115      0.122000
     48 H72         2.3530   -0.4880   -4.2220 ha        1 115      0.088000
     49 H91         3.7860   -0.1170   -2.9290 h1        1 115      0.103000
     50 H921        3.3240    2.1740   -2.0540 hc        1 115      0.077500
     51 H922        3.9530    1.7070   -0.4210 hc        1 115      0.077500
     52 H923        5.0640    1.6970   -1.8530 hc        1 115      0.077500
     53 H931        4.8590   -0.6210   -0.0730 hc        1 115      0.077500
     54 H932        5.7100   -0.7000   -1.6690 hc        1 115      0.077500
     55 H933        4.4610   -1.9460   -1.2460 hc        1 115      0.077500
     56 HO5         2.2650    0.0020   -6.2390 ho        1 115      0.198000
     57 C1          2.6960   -3.7370  -10.0620 c1        1 115      0.443000
@<TRIPOS>BOND
     1    1    2 1   
     2    1    6 1   
     3    1    7 1   
     4    2    3 1   
     5    2    9 1   
     6    3    4 1   
     7    3   30 1   
     8    3   31 1   
     9    4    5 1   
    10    4   32 1   
    11    5    6 1   
    12    5   33 1   
    13    7    8 1   
    14    7   12 1   
    15    8    9 1   
    16    8   25 1   
    17    9   26 1   
    18   10   11 1   
    19   10   15 1   
    20   10   35 1   
    21   11   34 1   
    22   11   36 1   
    23   12   13 1   
    24   13   14 1   
    25   13   37 1   
    26   14   15 1   
    27   15   16 1   
    28   17   57 1   
    29   18   57 1   
    30   19   21 1   
    31   19   38 1   
    32   20   21 1   
    33   20   39 1   
    34   20   40 1   
    35   20   41 1   
    36   21   22 1   
    37   21   42 1   
    38   22   23 1   
    39   22   43 1   
    40   22   44 1   
    41   23   24 1   
    42   23   29 1   
    43   23   45 1   
    44   24   25 1   
    45   24   46 1   
    46   24   47 1   
    47   25   48 1   
    48   26   27 1   
    49   26   28 1   
    50   26   49 1   
    51   27   50 1   
    52   27   51 1   
    53   27   52 1   
    54   28   53 1   
    55   28   54 1   
    56   28   55 1   
    57   29   56 1   
@<TRIPOS>SUBSTRUCTURE
     1 115         1 TEMP              0 ****  ****    0 ROOT
