@<TRIPOS>MOLECULE
molecule
   68    69     1     0     0
SMALL
bcc


@<TRIPOS>ATOM
      1 C14          0.0000     0.0000     0.0000 c3         1 116       0.112700
      2 O13          1.4300     0.0000     0.0000 os         1 116      -0.403600
      3 C13          1.8420     0.0000     1.3680 c3         1 116       0.171700
      4 C17          3.8670    -3.2060    -0.0900 c3         1 116      -0.083100
      5 C16          3.4820    -3.3540     2.3740 c3         1 116      -0.083100
      6 C8           4.0490     1.1960     1.6110 cp         1 116       0.012000
      7 C10          5.4440     1.1390     1.6760 ca         1 116      -0.184600
      8 C9           6.0700    -0.0830     1.5550 ca         1 116       0.444600
      9 N1           5.3710    -1.1890     1.3870 nb         1 116      -0.691000
     10 C12          4.0530    -1.1800     1.3270 ca         1 116       0.449600
     11 C11          3.3480    -0.0010     1.4390 ca         1 116      -0.205600
     12 C83          1.8560     4.1430     0.8170 ca         1 116      -0.172000
     13 C82          2.5210     2.9400     0.6970 ca         1 116      -0.085500
     14 C81          3.3330     2.4890     1.7360 cp         1 116      -0.060000
     15 C86          3.4650     3.2530     2.8930 ca         1 116      -0.085500
     16 C85          2.8010     4.4570     3.0030 ca         1 116      -0.172000
     17 C84          1.9950     4.9020     1.9670 ca         1 116       0.135900
     18 F1           1.3420     6.0800     2.0800 f          1 116      -0.142900
     19 O1B         10.2520     8.2220    -0.5280 o          1 116      -0.843800
     20 O1A         10.5600     8.4370    -2.7040 o          1 116      -0.843800
     21 O3           9.9420     5.7190     0.3340 oh         1 116      -0.613800
     22 C2           9.2490     6.5360    -1.8310 c3         1 116      -0.228400
     23 C3           8.7970     6.0070    -0.4680 c3         1 116       0.170100
     24 C4           7.9760     4.7310    -0.6630 c3         1 116      -0.136400
     25 C5           7.5250     4.2020     0.7000 c3         1 116       0.152100
     26 C6           6.7030     2.9250     0.5060 c3         1 116      -0.113400
     27 C92          7.9930    -1.0950     2.7500 c3         1 116      -0.080100
     28 C93          8.1140    -0.6910     0.2890 c3         1 116      -0.080100
     29 O5           8.6700     3.9140     1.5030 oh         1 116      -0.591800
     30 H141        -0.3610    -0.9640     0.3370 h1         1 116       0.029700
     31 H142        -0.3610     0.1900    -1.0040 h1         1 116       0.029700
     32 H143        -0.3610     0.7740     0.6660 h1         1 116       0.029700
     33 H131         1.4580     0.8850     1.8610 h1         1 116       0.036200
     34 H132         1.4570    -0.8840     1.8610 h1         1 116       0.036200
     35 H15          2.2430    -2.3260     1.0090 hc         1 116       0.057700
     36 H171         4.8480    -3.6020     0.1420 hc         1 116       0.036700
     37 H172         3.2200    -4.0130    -0.4130 hc         1 116       0.036700
     38 H173         3.9520    -2.4720    -0.8820 hc         1 116       0.036700
     39 H161         3.3020    -2.7620     3.2630 hc         1 116       0.036700
     40 H162         2.7720    -4.1710     2.3340 hc         1 116       0.036700
     41 H163         4.4890    -3.7520     2.4030 hc         1 116       0.036700
     42 H83          1.2240     4.4940     0.0100 ha         1 116       0.146000
     43 H82          2.4120     2.3470    -0.2030 ha         1 116       0.151000
     44 H86          4.0950     2.9050     3.7030 ha         1 116       0.151000
     45 H85          2.9060     5.0530     3.9010 ha         1 116       0.146000
     46 HO3         10.7240     5.9610    -0.1350 ho         1 116       0.418000
     47 H21          9.8570     5.7880    -2.3250 hc         1 116       0.036700
     48 H22          8.3800     6.7540    -2.4390 hc         1 116       0.036700
     49 H3           8.1890     6.7550     0.0260 h1         1 116       0.060700
     50 H41          8.5840     3.9830    -1.1570 hc         1 116       0.039700
     51 H42          7.1070     4.9500    -1.2720 hc         1 116       0.039700
     52 H5           6.9170     4.9510     1.1940 h1         1 116       0.073700
     53 H61          7.3110     2.1770     0.0120 hc         1 116       0.043700
     54 H62          5.8350     3.1440    -0.1030 hc         1 116       0.043700
     55 H71          5.6430     3.1450     2.3610 hc         1 116       0.063200
     56 H72          7.1200     2.1780     2.4770 hc         1 116       0.063200
     57 H91          7.9770     0.8320     1.7980 hc         1 116       0.077700
     58 H921         7.7490    -2.1160     2.4830 hc         1 116       0.037033
     59 H922         9.0590    -1.0120     2.9260 hc         1 116       0.037033
     60 H923         7.4560    -0.8190     3.6500 hc         1 116       0.037033
     61 H931         7.5380    -0.2750    -0.5290 hc         1 116       0.037033
     62 H932         8.0300    -1.7710     0.2760 hc         1 116       0.037033
     63 H933         9.1540    -0.4080     0.1780 hc         1 116       0.037033
     64 HO5          9.3250     3.4870     0.9750 ho         1 116       0.404000
     65 C7           6.2520     2.3970     1.8670 c3         1 116      -0.038100
     66 C15          3.3090    -2.4760     1.1330 c3         1 116      -0.120000
     67 C91          7.5740    -0.1570     1.6160 c3         1 116      -0.128000
     68 C1          10.0570     7.7940    -1.6390 c          1 116       0.882600
@<TRIPOS>BOND
     1     1     2 1   
     2     1    30 1   
     3     1    31 1   
     4     1    32 1   
     5     2     3 1   
     6     3    11 1   
     7     3    33 1   
     8     3    34 1   
     9    66     4 1   
    10    66     5 1   
    11    66    10 1   
    12    66    35 1   
    13     4    36 1   
    14     4    37 1   
    15     4    38 1   
    16     5    39 1   
    17     5    40 1   
    18     5    41 1   
    19     6     7 ar  
    20     6    11 ar  
    21     6    14 1   
    22     7     8 ar  
    23     7    65 1   
    24     8     9 ar  
    25     8    67 1   
    26     9    10 ar  
    27    10    11 ar  
    28    12    13 ar  
    29    12    17 ar  
    30    12    42 1   
    31    13    14 ar  
    32    13    43 1   
    33    14    15 ar  
    34    15    16 ar  
    35    15    44 1   
    36    16    17 ar  
    37    16    45 1   
    38    17    18 1   
    39    19    68 1   
    40    20    68 1   
    41    21    23 1   
    42    21    46 1   
    43    68    22 1   
    44    22    23 1   
    45    22    47 1   
    46    22    48 1   
    47    23    24 1   
    48    23    49 1   
    49    24    25 1   
    50    24    50 1   
    51    24    51 1   
    52    25    26 1   
    53    25    29 1   
    54    25    52 1   
    55    26    65 1   
    56    26    53 1   
    57    26    54 1   
    58    65    55 1   
    59    65    56 1   
    60    67    27 1   
    61    67    28 1   
    62    67    57 1   
    63    27    58 1   
    64    27    59 1   
    65    27    60 1   
    66    28    61 1   
    67    28    62 1   
    68    28    63 1   
    69    29    64 1   
@<TRIPOS>SUBSTRUCTURE
     1 116         1 TEMP              0 ****  ****    0 ROOT
