@<TRIPOS>MOLECULE
116
   68    69     1     0     0
SMALL
bcc


@<TRIPOS>ATOM
      1 C14        -0.1170   -0.1270    0.0810 c3        1 116      0.114700
      2 O13         1.2930   -0.2370    0.1410 os        1 116     -0.413600
      3 C13         1.7970   -0.0140    1.4620 c3        1 116      0.175700
      4 C17         3.9880   -3.3950    0.0060 c3        1 116     -0.082600
      5 C16         3.2000   -3.2310    2.3630 c3        1 116     -0.082600
      6 C8          3.9950    1.2070    1.5690 cp        1 116      0.001000
      7 C10         5.4010    1.1960    1.5700 ca        1 116     -0.167600
      8 C9          6.0600   -0.0510    1.3930 ca        1 116      0.435600
      9 N1          5.3820   -1.2080    1.2330 nb        1 116     -0.675000
     10 C12         4.0310   -1.1920    1.2240 ca        1 116      0.433600
     11 C11         3.2890    0.0020    1.4040 ca        1 116     -0.195600
     12 C83         2.3180    4.4970    0.8060 ca        1 116     -0.168000
     13 C82         3.0120    3.3020    0.6470 ca        1 116     -0.090500
     14 C81         3.2690    2.4730    1.7470 cp        1 116     -0.054000
     15 C86         2.8320    2.8630    3.0210 ca        1 116     -0.090500
     16 C85         2.1370    4.0550    3.1980 ca        1 116     -0.168000
     17 C84         1.8740    4.8750    2.0860 ca        1 116      0.123900
     18 F1          1.1910    6.0340    2.2500 f         1 116     -0.143900
     19 O1B        10.7910    8.1790   -0.5500 o         1 116     -0.845800
     20 O1A         9.3960    9.2070   -1.9580 o         1 116     -0.845800
     21 O3         10.2700    5.5240    0.0480 oh        1 116     -0.675800
     22 C2          9.1050    6.8420   -1.6380 c3        1 116     -0.235400
     23 C3          8.9980    5.9920   -0.3820 c3        1 116      0.171100
     24 C4          8.1290    4.7580   -0.6270 c3        1 116     -0.122400
     25 C5          7.7930    4.0220    0.6640 c3        1 116      0.153100
     26 C6          6.6240    3.0600    0.4520 c3        1 116     -0.076400
     27 C92         8.0570   -0.4990    2.7880 c3        1 116     -0.080600
     28 C93         8.1140   -1.0860    0.3660 c3        1 116     -0.080600
     29 O5          8.8830    3.2320    1.1270 oh        1 116     -0.639800
     30 H141       -0.6030   -0.8890    0.7400 h1        1 116      0.030700
     31 H142       -0.3660   -0.3230   -0.9930 h1        1 116      0.030700
     32 H143       -0.4500    0.8980    0.3790 h1        1 116      0.030700
     33 H131        1.3950    0.9600    1.8550 h1        1 116      0.035700
     34 H132        1.4400   -0.8440    2.1340 h1        1 116      0.035700
     35 H15         2.2740   -2.2850    0.6500 hc        1 116      0.066700
     36 H171        4.9770   -3.7580    0.3750 hc        1 116      0.035700
     37 H172        4.1500   -2.8320   -0.9450 hc        1 116      0.035700
     38 H173        3.3430   -4.2810   -0.2080 hc        1 116      0.035700
     39 H161        4.2140   -3.4670    2.7670 hc        1 116      0.035700
     40 H162        2.6390   -4.1880    2.2300 hc        1 116      0.035700
     41 H163        2.6580   -2.5990    3.1070 hc        1 116      0.035700
     42 H83         2.1210    5.1510   -0.0550 ha        1 116      0.149000
     43 H82         3.3660    3.0050   -0.3530 ha        1 116      0.146000
     44 H86         3.0450    2.2230    3.8900 ha        1 116      0.146000
     45 H85         1.7980    4.3650    4.1970 ha        1 116      0.149000
     46 HO3        10.8680    6.2950    0.0360 ho        1 116      0.466000
     47 H21         8.0860    7.0450   -2.0470 hc        1 116      0.036700
     48 H22         9.6970    6.2940   -2.4130 hc        1 116      0.036700
     49 H3          8.5500    6.6120    0.4480 h1        1 116      0.029700
     50 H41         7.1820    5.0880   -1.1230 hc        1 116      0.049700
     51 H42         8.6670    4.0600   -1.3180 hc        1 116      0.049700
     52 H5          7.5290    4.7660    1.4700 h1        1 116      0.032700
     53 H61         5.7730    3.6140   -0.0220 hc        1 116      0.046200
     54 H62         6.9460    2.2520   -0.2550 hc        1 116      0.046200
     55 H71         7.0660    2.2550    2.4170 hc        1 116      0.062700
     56 H72         5.5390    3.2070    2.3190 hc        1 116      0.062700
     57 H91         7.9800    0.9060    1.1460 hc        1 116      0.098700
     58 H921        7.6960    0.2410    3.5420 hc        1 116      0.035533
     59 H922        7.6870   -1.5120    3.0720 hc        1 116      0.035533
     60 H923        9.1740   -0.5080    2.8060 hc        1 116      0.035533
     61 H931        7.8700   -2.1430    0.6320 hc        1 116      0.035533
     62 H932        9.2250   -0.9840    0.3070 hc        1 116      0.035533
     63 H933        7.6810   -0.8630   -0.6380 hc        1 116      0.035533
     64 HO5         9.6830    3.7690    1.0280 ho        1 116      0.441000
     65 C7          6.1690    2.4560    1.7690 c3        1 116     -0.042100
     66 C15         3.3110   -2.5100    1.0330 c3        1 116     -0.117000
     67 C91         7.5740   -0.1190    1.4010 c3        1 116     -0.131000
     68 C1          9.8130    8.1790   -1.3590 c         1 116      0.910600
@<TRIPOS>BOND
     1    1    2 1   
     2    1   30 1   
     3    1   31 1   
     4    1   32 1   
     5    2    3 1   
     6    3   11 1   
     7    3   33 1   
     8    3   34 1   
     9    4   36 1   
    10    4   37 1   
    11    4   38 1   
    12    4   66 1   
    13    5   39 1   
    14    5   40 1   
    15    5   41 1   
    16    5   66 1   
    17    6    7 ar  
    18    6   11 ar  
    19    6   14 1   
    20    7    8 ar  
    21    7   65 1   
    22    8    9 ar  
    23    8   67 1   
    24    9   10 ar  
    25   10   11 ar  
    26   10   66 1   
    27   12   13 ar  
    28   12   17 ar  
    29   12   42 1   
    30   13   14 ar  
    31   13   43 1   
    32   14   15 ar  
    33   15   16 ar  
    34   15   44 1   
    35   16   17 ar  
    36   16   45 1   
    37   17   18 1   
    38   19   68 1   
    39   20   68 1   
    40   21   23 1   
    41   21   46 1   
    42   22   23 1   
    43   22   47 1   
    44   22   48 1   
    45   22   68 1   
    46   23   24 1   
    47   23   49 1   
    48   24   25 1   
    49   24   50 1   
    50   24   51 1   
    51   25   26 1   
    52   25   29 1   
    53   25   52 1   
    54   26   53 1   
    55   26   54 1   
    56   26   65 1   
    57   27   58 1   
    58   27   59 1   
    59   27   60 1   
    60   27   67 1   
    61   28   61 1   
    62   28   62 1   
    63   28   63 1   
    64   28   67 1   
    65   29   64 1   
    66   35   66 1   
    67   55   65 1   
    68   56   65 1   
    69   57   67 1   
@<TRIPOS>SUBSTRUCTURE
     1 116         1 TEMP              0 ****  ****    0 ROOT
