@<TRIPOS>MOLECULE
116
   68    69     1     0     0
SMALL
bcc


@<TRIPOS>ATOM
      1 C14          0.1840    -0.1510     0.7640 c3         1 116       0.116700
      2 O13          1.5700     0.0810     0.5950 os         1 116      -0.424600
      3 C13          2.3270    -0.3090     1.7490 c3         1 116       0.170700
      4 C17          4.2700     3.2160     0.2660 c3         1 116      -0.082600
      5 C16          3.9230     2.8010     2.6980 c3         1 116      -0.082600
      6 C8           4.4750    -1.5270     1.2870 cp         1 116       0.031000
      7 C10          5.8670    -1.5110     1.0710 ca         1 116      -0.175600
      8 C9           6.5080    -0.2520     0.9420 ca         1 116       0.420600
      9 N1           5.8300     0.9160     0.9980 nb         1 116      -0.683000
     10 C12          4.4980     0.8970     1.2200 ca         1 116       0.431600
     11 C11          3.7780    -0.3110     1.3940 ca         1 116      -0.183600
     12 C83          2.5850    -4.6200     0.2820 ca         1 116      -0.169500
     13 C82          3.2600    -3.4080     0.2200 ca         1 116      -0.098000
     14 C81          3.7570    -2.8070     1.3850 cp         1 116      -0.089000
     15 C86          3.5710    -3.4380     2.6220 ca         1 116      -0.098000
     16 C85          2.9080    -4.6620     2.7020 ca         1 116      -0.169500
     17 C84          2.4090    -5.2530     1.5290 ca         1 116       0.111900
     18 F1           1.7520    -6.4390     1.5840 f          1 116      -0.150900
     19 O1B          3.8450    -5.6790     5.6410 o          1 116      -0.850300
     20 O1A          3.8640    -3.4510     5.7800 o          1 116      -0.850300
     21 O3           6.2700    -6.8540     4.6860 oh         1 116      -0.649800
     22 C2           5.9720    -4.5710     5.4480 c3         1 116      -0.236400
     23 C3           6.3250    -5.4890     4.2860 c3         1 116       0.167100
     24 C4           7.7310    -5.2400     3.7440 c3         1 116      -0.116400
     25 C5           7.6970    -4.6300     2.3450 c3         1 116       0.140100
     26 C6           7.1310    -3.2130     2.3600 c3         1 116      -0.079400
     27 C92          8.2890    -0.1380    -0.7770 c3         1 116      -0.081600
     28 C93          8.6500     0.9980     1.4090 c3         1 116      -0.081600
     29 O5           9.0140    -4.5390     1.8000 oh         1 116      -0.619800
     30 H141        -0.0220    -1.2390     0.9230 h1         1 116       0.029367
     31 H142        -0.2130     0.4390     1.6280 h1         1 116       0.029367
     32 H143        -0.2780     0.1980    -0.1930 h1         1 116       0.029367
     33 H131         2.1280     0.4320     2.5730 h1         1 116       0.049700
     34 H132         1.9960    -1.3270     2.0940 h1         1 116       0.049700
     35 H15          2.6840     2.0380     1.0960 hc         1 116       0.069700
     36 H171         4.2460     2.7570    -0.7510 hc         1 116       0.034533
     37 H172         3.6100     4.1180     0.2670 hc         1 116       0.034533
     38 H173         5.3140     3.5420     0.4840 hc         1 116       0.034533
     39 H161         3.5260     2.0870     3.4580 hc         1 116       0.034533
     40 H162         3.3540     3.7590     2.7750 hc         1 116       0.034533
     41 H163         4.9960     3.0050     2.9290 hc         1 116       0.034533
     42 H83          2.1920    -5.0910    -0.6280 ha         1 116       0.175500
     43 H82          3.4020    -2.9130    -0.7520 ha         1 116       0.165000
     44 H86          3.9420    -2.9880     3.5670 ha         1 116       0.165000
     45 H85          2.8040    -5.1570     3.6920 ha         1 116       0.175500
     46 HO3          5.4130    -6.9630     5.1340 ho         1 116       0.449000
     47 H21          6.3270    -3.5300     5.2480 hc         1 116       0.041700
     48 H22          6.4590    -4.9380     6.3840 hc         1 116       0.041700
     49 H3           5.5610    -5.3380     3.4640 h1         1 116       0.033700
     50 H41          8.2860    -6.2150     3.7030 hc         1 116       0.048200
     51 H42          8.2960    -4.5590     4.4300 hc         1 116       0.048200
     52 H5           7.0790    -5.2870     1.6670 h1         1 116       0.037700
     53 H61          7.9260    -2.5050     2.7110 hc         1 116       0.066700
     54 H62          6.2840    -3.1770     3.0980 hc         1 116       0.066700
     55 H71          7.4800    -2.7120     0.2760 hc         1 116       0.054200
     56 H72          5.9420    -3.5960     0.5910 hc         1 116       0.054200
     57 H91          8.4650    -1.1170     1.1430 hc         1 116       0.068700
     58 H921         9.3920    -0.1260    -0.9520 hc         1 116       0.034367
     59 H922         7.8570    -1.0340    -1.2840 hc         1 116       0.034367
     60 H923         7.8460     0.7790    -1.2340 hc         1 116       0.034367
     61 H931         8.3400     1.9630     0.9410 hc         1 116       0.034367
     62 H932         8.3630     1.0180     2.4870 hc         1 116       0.034367
     63 H933         9.7620     0.9120     1.3360 hc         1 116       0.034367
     64 HO5          9.4210    -5.4050     1.9160 ho         1 116       0.392000
     65 C7           6.6210    -2.7940     0.9940 c3         1 116      -0.035100
     66 C15          3.7770     2.2260     1.3020 c3         1 116      -0.118000
     67 C91          8.0040    -0.1820     0.7110 c3         1 116      -0.118000
     68 C1           4.4510    -4.5630     5.6520 c          1 116       0.900600
@<TRIPOS>BOND
     1     1     2 1   
     2     1    30 1   
     3     1    31 1   
     4     1    32 1   
     5     2     3 1   
     6     3    11 1   
     7     3    33 1   
     8     3    34 1   
     9     4    36 1   
    10     4    37 1   
    11     4    38 1   
    12     4    66 1   
    13     5    39 1   
    14     5    40 1   
    15     5    41 1   
    16     5    66 1   
    17     6     7 ar  
    18     6    11 ar  
    19     6    14 1   
    20     7     8 ar  
    21     7    65 1   
    22     8     9 ar  
    23     8    67 1   
    24     9    10 ar  
    25    10    11 ar  
    26    10    66 1   
    27    12    13 ar  
    28    12    17 ar  
    29    12    42 1   
    30    13    14 ar  
    31    13    43 1   
    32    14    15 ar  
    33    15    16 ar  
    34    15    44 1   
    35    16    17 ar  
    36    16    45 1   
    37    17    18 1   
    38    19    68 1   
    39    20    68 1   
    40    21    23 1   
    41    21    46 1   
    42    22    23 1   
    43    22    47 1   
    44    22    48 1   
    45    22    68 1   
    46    23    24 1   
    47    23    49 1   
    48    24    25 1   
    49    24    50 1   
    50    24    51 1   
    51    25    26 1   
    52    25    29 1   
    53    25    52 1   
    54    26    53 1   
    55    26    54 1   
    56    26    65 1   
    57    27    58 1   
    58    27    59 1   
    59    27    60 1   
    60    27    67 1   
    61    28    61 1   
    62    28    62 1   
    63    28    63 1   
    64    28    67 1   
    65    29    64 1   
    66    35    66 1   
    67    55    65 1   
    68    56    65 1   
    69    57    67 1   
@<TRIPOS>SUBSTRUCTURE
     1 116         1 TEMP              0 ****  ****    0 ROOT
