@<TRIPOS>MOLECULE
117
   75    78     1     0     0
SMALL
bcc


@<TRIPOS>ATOM
      1 C17          0.7410    -1.1250     0.0450 ca         1 117      -0.120000
      2 C12          1.8120    -0.2490    -0.1830 ca         1 117      -0.002000
      3 C13          2.2830     0.5470     0.8720 ca         1 117      -0.120000
      4 C14          1.6930     0.4650     2.1320 ca         1 117      -0.132500
      5 C15          0.6300    -0.4100     2.3520 ca         1 117      -0.131000
      6 C16          0.1560    -1.2030     1.3080 ca         1 117      -0.132500
      7 C83          0.1800     3.7840    -1.4070 ca         1 117      -0.165500
      8 C82          1.1240     2.7670    -1.4670 ca         1 117      -0.094500
      9 C81          1.0620     1.7980    -2.4770 ca         1 117      -0.064000
     10 C86          0.0310     1.8590    -3.4260 ca         1 117      -0.094500
     11 C85         -0.9150     2.8780    -3.3950 ca         1 117      -0.165500
     12 C84         -0.8410     3.8460    -2.3750 ca         1 117       0.131900
     13 F1          -1.7510     4.8460    -2.3140 f          1 117      -0.138900
     14 C8           2.0620     0.7390    -2.5200 cc         1 117      -0.024300
     15 C19          5.0690    -2.6820     0.9460 ca         1 117       0.087600
     16 C20          5.1830    -2.2390     2.2900 ca         1 117      -0.177000
     17 C21          5.7780    -3.0450     3.2510 ca         1 117      -0.106500
     18 C22          6.2710    -4.3050     2.9170 ca         1 117      -0.173000
     19 C23          6.1620    -4.7530     1.6020 ca         1 117      -0.106500
     20 C24          5.5720    -3.9620     0.6210 ca         1 117      -0.177000
     21 O1B         -3.8250     1.5410    -6.8200 o          1 117      -0.847800
     22 O1A         -2.4400     3.1620    -6.1560 o          1 117      -0.847800
     23 O3          -0.0000     3.3860    -7.4950 oh         1 117      -0.655800
     24 C2          -1.6360     1.6160    -7.8180 c3         1 117      -0.235400
     25 C3          -0.2540     1.9980    -7.3150 c3         1 117       0.169100
     26 C4           0.8580     1.2460    -8.0430 c3         1 117      -0.113400
     27 C5           2.1770     1.3740    -7.2870 c3         1 117       0.139100
     28 C6           2.2240     0.4600    -6.0630 c3         1 117      -0.099400
     29 N1           2.8660     0.4690    -3.6400 na         1 117      -0.040100
     30 C10          2.4180    -0.1630    -1.4980 cd         1 117      -0.100000
     31 C11          3.4570    -1.0120    -2.0230 cd         1 117      -0.224600
     32 C18          4.1020    -2.1180    -1.2990 c          1 117       0.724700
     33 N2           4.4940    -1.8170     0.0080 ns         1 117      -0.469100
     34 O18          4.3070    -3.2390    -1.8040 o          1 117      -0.608100
     35 C9           3.7180    -0.5990    -3.3490 cc         1 117      -0.024600
     36 C91          4.7160    -1.1320    -4.3260 c3         1 117      -0.004400
     37 C93          6.0940    -1.2320    -3.7000 c3         1 117      -0.095100
     38 C92          4.2700    -2.4790    -4.8650 c3         1 117      -0.095100
     39 O5           3.2830     0.9930    -8.1060 oh         1 117      -0.622800
     40 H17          0.3610    -1.7450    -0.7810 ha         1 117       0.138500
     41 H13          3.1130     1.2480     0.6970 ha         1 117       0.138500
     42 H14          2.0640     1.0970     2.9520 ha         1 117       0.127500
     43 H15          0.1640    -0.4710     3.3460 ha         1 117       0.125000
     44 H16         -0.6870    -1.8890     1.4760 ha         1 117       0.127500
     45 H83          0.2230     4.5430    -0.6130 ha         1 117       0.185500
     46 H82          1.9220     2.7140    -0.7100 ha         1 117       0.140000
     47 H86         -0.0400     1.0870    -4.2090 ha         1 117       0.140000
     48 H85         -1.7040     2.9420    -4.1800 ha         1 117       0.185500
     49 H20          4.7970    -1.2510     2.5830 ha         1 117       0.150500
     50 H21          5.8560    -2.6830     4.2870 ha         1 117       0.124500
     51 H22          6.7390    -4.9390     3.6830 ha         1 117       0.123000
     52 H23          6.5450    -5.7470     1.3280 ha         1 117       0.124500
     53 H24          5.4970    -4.3470    -0.4090 ha         1 117       0.150500
     54 HO3         -0.7610     3.8470    -7.0980 ho         1 117       0.454000
     55 H21A        -1.8120     2.0620    -8.8280 hc         1 117       0.040700
     56 H22A        -1.7260     0.5060    -7.9010 hc         1 117       0.040700
     57 H3          -0.1990     1.7730    -6.2080 h1         1 117       0.025700
     58 H41          0.9760     1.6740    -9.0710 hc         1 117       0.048200
     59 H42          0.5760     0.1680    -8.1460 hc         1 117       0.048200
     60 H5           2.3100     2.4550    -6.9880 h1         1 117       0.055700
     61 H61          2.8360    -0.4500    -6.3040 hc         1 117       0.068200
     62 H62          1.1870     0.1160    -5.8110 hc         1 117       0.068200
     63 H71          2.2270     2.1500    -4.6970 h1         1 117       0.074200
     64 H72          3.8840     1.5160    -5.1400 h1         1 117       0.074200
     65 HN2          4.1920    -0.9340     0.3660 hn         1 117       0.325500
     66 H91          4.7980    -0.4230    -5.2040 hc         1 117       0.058700
     67 H931         6.8320    -1.5600    -4.4710 hc         1 117       0.043700
     68 H932         6.0960    -1.9780    -2.8680 hc         1 117       0.043700
     69 H933         6.4140    -0.2420    -3.2960 hc         1 117       0.043700
     70 H921         3.2710    -2.3900    -5.3570 hc         1 117       0.043700
     71 H922         5.0090    -2.8440    -5.6180 hc         1 117       0.043700
     72 H923         4.1960    -3.2280    -4.0380 hc         1 117       0.043700
     73 HO5          3.1980     1.4840    -8.9310 ho         1 117       0.400000
     74 C7           2.8300     1.2110    -4.8770 c3         1 117       0.021300
     75 C1          -2.7190     2.1410    -6.8620 c          1 117       0.908600
@<TRIPOS>BOND
     1     1     2 ar  
     2     1     6 ar  
     3     1    40 1   
     4     2     3 ar  
     5     2    30 1   
     6     3     4 ar  
     7     3    41 1   
     8     4     5 ar  
     9     4    42 1   
    10     5     6 ar  
    11     5    43 1   
    12     6    44 1   
    13     7     8 ar  
    14     7    12 ar  
    15     7    45 1   
    16     8     9 ar  
    17     8    46 1   
    18     9    10 ar  
    19     9    14 1   
    20    10    11 ar  
    21    10    47 1   
    22    11    12 ar  
    23    11    48 1   
    24    12    13 1   
    25    14    29 1   
    26    14    30 2   
    27    15    16 ar  
    28    15    20 ar  
    29    15    33 1   
    30    16    17 ar  
    31    16    49 1   
    32    17    18 ar  
    33    17    50 1   
    34    18    19 ar  
    35    18    51 1   
    36    19    20 ar  
    37    19    52 1   
    38    20    53 1   
    39    21    75 1   
    40    22    75 1   
    41    23    25 1   
    42    23    54 1   
    43    24    25 1   
    44    24    55 1   
    45    24    56 1   
    46    24    75 1   
    47    25    26 1   
    48    25    57 1   
    49    26    27 1   
    50    26    58 1   
    51    26    59 1   
    52    27    28 1   
    53    27    39 1   
    54    27    60 1   
    55    28    61 1   
    56    28    62 1   
    57    28    74 1   
    58    29    35 1   
    59    29    74 1   
    60    30    31 1   
    61    31    32 1   
    62    31    35 2   
    63    32    33 1   
    64    32    34 2   
    65    33    65 1   
    66    35    36 1   
    67    36    37 1   
    68    36    38 1   
    69    36    66 1   
    70    37    67 1   
    71    37    68 1   
    72    37    69 1   
    73    38    70 1   
    74    38    71 1   
    75    38    72 1   
    76    39    73 1   
    77    63    74 1   
    78    64    74 1   
@<TRIPOS>SUBSTRUCTURE
     1 117         1 TEMP              0 ****  ****    0 ROOT
