@<TRIPOS>MOLECULE
molecule
   75    78     1     0     0
SMALL
bcc


@<TRIPOS>ATOM
      1 C17          0.0000     0.0000     0.0000 ca         1 117      -0.113500
      2 C12          1.3960     0.0000     0.0000 ca         1 117      -0.005000
      3 C13          2.0860     0.0000     1.2110 ca         1 117      -0.113500
      4 C14          1.3880     0.0130     2.4020 ca         1 117      -0.134000
      5 C15          0.0050     0.0130     2.3950 ca         1 117      -0.134000
      6 C16         -0.6870     0.0070     1.1960 ca         1 117      -0.134000
      7 C83          2.8400     4.2680     0.0060 ca         1 117      -0.169000
      8 C82          2.4660     3.1240    -0.6680 ca         1 117      -0.085500
      9 C81          3.4270     2.1710    -1.0080 ca         1 117      -0.028000
     10 C86          4.7630     2.3800    -0.6600 ca         1 117      -0.085500
     11 C85          5.1260     3.5310     0.0090 ca         1 117      -0.169000
     12 C84          4.1670     4.4720     0.3450 ca         1 117       0.136900
     13 F1           4.5280     5.5950     1.0040 f          1 117      -0.142900
     14 C8           3.0330     0.9450    -1.7290 cc         1 117      -0.065300
     15 C19          0.9380    -4.5240    -1.7220 ca         1 117       0.064600
     16 C20          1.4830    -5.7920    -1.8810 ca         1 117      -0.146500
     17 C21          0.6760    -6.9070    -1.7740 ca         1 117      -0.114000
     18 C22         -0.6730    -6.7640    -1.5070 ca         1 117      -0.153000
     19 C23         -1.2190    -5.5030    -1.3480 ca         1 117      -0.114000
     20 C24         -0.4160    -4.3840    -1.4480 ca         1 117      -0.146500
     21 O1B          4.8200     7.4810    -9.8970 o          1 117      -0.858300
     22 O1A          6.4280     6.3470    -8.8950 o          1 117      -0.858300
     23 O3           5.7530     3.9030    -8.0740 oh         1 117      -0.597800
     24 C2           4.2520     5.7920    -8.1880 c3         1 117      -0.201400
     25 C3           4.9950     4.8140    -7.2760 c3         1 117       0.170100
     26 C4           3.9840     4.0350    -6.4330 c3         1 117      -0.097400
     27 C5           4.7270     3.0560    -5.5220 c3         1 117       0.149100
     28 C6           3.7160     2.2760    -4.6780 c3         1 117      -0.122400
     29 N1           3.4910     0.5520    -2.9590 na         1 117      -0.020100
     30 C10          2.1380    -0.0070    -1.2800 cd         1 117      -0.077000
     31 C11          2.0710    -1.0260    -2.3390 cd         1 117      -0.236600
     32 C18          1.2530    -2.2490    -2.3360 c          1 117       0.717700
     33 N2           1.7530    -3.3930    -1.8290 ns         1 117      -0.475100
     34 O18          0.1260    -2.2270    -2.7930 o          1 117      -0.594100
     35 C9           2.9270    -0.6150    -3.3230 cc         1 117      -0.043600
     36 C91          3.1920    -1.3480    -4.6120 c3         1 117      -0.015400
     37 C93          3.7560    -2.7370    -4.3020 c3         1 117      -0.088600
     38 C92          1.8860    -1.4930    -5.3950 c3         1 117      -0.088600
     39 O5           5.4850     2.1450    -6.3180 oh         1 117      -0.580800
     40 H17         -0.5430    -0.0020    -0.9370 ha         1 117       0.140500
     41 H13          3.1690    -0.0000     1.2180 ha         1 117       0.140500
     42 H14          1.9240     0.0150     3.3430 ha         1 117       0.126000
     43 H15         -0.5390     0.0210     3.3310 ha         1 117       0.122000
     44 H16         -1.7700     0.0070     1.1970 ha         1 117       0.126000
     45 H83          2.0940     5.0080     0.2710 ha         1 117       0.146000
     46 H82          1.4270     2.9660    -0.9330 ha         1 117       0.145000
     47 H86          5.5140     1.6440    -0.9210 ha         1 117       0.145000
     48 H85          6.1630     3.6950     0.2780 ha         1 117       0.146000
     49 H20          2.5390    -5.9060    -2.0920 ha         1 117       0.145000
     50 H21          1.1010    -7.8960    -1.8980 ha         1 117       0.127000
     51 H22         -1.3050    -7.6400    -1.4260 ha         1 117       0.123000
     52 H23         -2.2750    -5.3940    -1.1370 ha         1 117       0.127000
     53 H24         -0.8440    -3.3970    -1.3230 ha         1 117       0.145000
     54 HO3          6.6680     4.1210    -8.0170 ho         1 117       0.408000
     55 H21A         3.5850     5.2420    -8.8400 hc         1 117       0.037700
     56 H22A         3.6760     6.4830    -7.5830 hc         1 117       0.037700
     57 H3           5.6620     5.3640    -6.6240 h1         1 117       0.025700
     58 H41          3.4090     4.7260    -5.8290 hc         1 117       0.051700
     59 H42          3.3170     3.4850    -7.0860 hc         1 117       0.051700
     60 H5           5.3930     3.6070    -4.8690 h1         1 117       0.023700
     61 H61          3.0500     1.7260    -5.3310 hc         1 117       0.063700
     62 H62          3.1410     2.9670    -4.0740 hc         1 117       0.063700
     63 H71          5.0340     0.6070    -4.3710 h1         1 117       0.066200
     64 H72          5.1260     1.8480    -3.1130 h1         1 117       0.066200
     65 HN2          2.6900    -3.4170    -1.4790 hn         1 117       0.328500
     66 H91          3.9090    -0.7920    -5.2040 hc         1 117       0.068700
     67 H931         4.5000    -2.9990    -5.0450 hc         1 117       0.042533
     68 H932         4.2140    -2.7300    -3.3200 hc         1 117       0.042533
     69 H933         2.9540    -3.4650    -4.3210 hc         1 117       0.042533
     70 H921         1.4580    -2.4700    -5.2050 hc         1 117       0.042533
     71 H922         1.1900    -0.7250    -5.0800 hc         1 117       0.042533
     72 H923         2.0860    -1.3860    -6.4540 hc         1 117       0.042533
     73 HO5          6.3660     2.0940    -5.9850 ho         1 117       0.387000
     74 C7           4.4590     1.2980    -3.7660 c3         1 117       0.027300
     75 C1           5.2470     6.5610    -9.0190 c          1 117       0.901600
@<TRIPOS>BOND
     1     1     2 ar
     2     1     6 ar
     3     1    40 1
     4     2     3 ar
     5     2    30 1
     6     3     4 ar
     7     3    41 1
     8     4     5 ar
     9     4    42 1
    10     5     6 ar
    11     5    43 1
    12     6    44 1
    13     7     8 ar
    14     7    12 ar
    15     7    45 1
    16     8     9 ar
    17     8    46 1
    18     9    10 ar
    19     9    14 1
    20    10    11 ar
    21    10    47 1
    22    11    12 ar
    23    11    48 1
    24    12    13 1
    25    14    29 1
    26    14    30 2
    27    15    16 ar
    28    15    20 ar
    29    15    33 1
    30    16    17 ar
    31    16    49 1
    32    17    18 ar
    33    17    50 1
    34    18    19 ar
    35    18    51 1
    36    19    20 ar
    37    19    52 1
    38    20    53 1
    39    21    75 1
    40    22    75 1
    41    23    25 1
    42    23    54 1
    43    75    24 1
    44    24    25 1
    45    24    55 1
    46    24    56 1
    47    25    26 1
    48    25    57 1
    49    26    27 1
    50    26    58 1
    51    26    59 1
    52    27    28 1
    53    27    39 1
    54    27    60 1
    55    28    74 1
    56    28    61 1
    57    28    62 1
    58    74    29 1
    59    74    63 1
    60    74    64 1
    61    29    35 1
    62    30    31 1
    63    31    32 1
    64    31    35 2
    65    32    33 1
    66    32    34 2
    67    33    65 1
    68    35    36 1
    69    36    37 1
    70    36    38 1
    71    36    66 1
    72    37    67 1
    73    37    68 1
    74    37    69 1
    75    38    70 1
    76    38    71 1
    77    38    72 1
    78    39    73 1
@<TRIPOS>SUBSTRUCTURE
     1 117         1 TEMP              0 ****  ****    0 ROOT
