@<TRIPOS>MOLECULE
molecule
   45    48     1     0     0
SMALL
bcc


@<TRIPOS>ATOM
      1 P            0.0000     0.0000     0.0000 p5         1 119       1.149000
      2 C1A          1.8150     0.0000     0.0000 ca         1 119      -0.368000
      3 C2A          2.5050     0.0000     1.1970 ca         1 119      -0.056875
      4 C3A          3.8880     0.0020     1.1980 ca         1 119      -0.124000
      5 C4A          4.5790     0.0010     0.0010 ca         1 119      -0.055750
      6 C5A          3.8880     0.0000    -1.1960 ca         1 119      -0.124000
      7 C6A          2.5060    -0.0000    -1.1970 ca         1 119      -0.056875
      8 C1C         -0.6040    -0.5560    -1.6180 ca         1 119      -0.368000
      9 C6C         -1.0320    -1.8590    -1.7850 ca         1 119      -0.056875
     10 C5C         -1.4930    -2.2830    -3.0180 ca         1 119      -0.124000
     11 C4C         -1.5250    -1.4020    -4.0830 ca         1 119      -0.055750
     12 C3C         -1.0980    -0.0980    -3.9160 ca         1 119      -0.124000
     13 C2C         -0.6410     0.3260    -2.6810 ca         1 119      -0.056875
     14 C1D         -0.6040    -1.1220     1.2900 ca         1 119      -0.368000
     15 C6D         -1.8130    -0.8720     1.9130 ca         1 119      -0.056875
     16 C5D         -2.2730    -1.7280     2.8960 ca         1 119      -0.124000
     17 C4D         -1.5270    -2.8350     3.2550 ca         1 119      -0.055750
     18 C3D         -0.3200    -3.0860     2.6310 ca         1 119      -0.124000
     19 C2D          0.1390    -2.2330     1.6450 ca         1 119      -0.056875
     20 C6B          0.1920     2.5790     1.0100 ca         1 119      -0.056875
     21 C5B         -0.2670     3.8590     1.2570 ca         1 119      -0.124000
     22 C4B         -1.5260     4.2370     0.8260 ca         1 119      -0.055750
     23 C3B         -2.3230     3.3350     0.1470 ca         1 119      -0.124000
     24 C2B         -1.8620     2.0560    -0.1020 ca         1 119      -0.056875
     25 C1B         -0.6040     1.6780     0.3270 ca         1 119      -0.368000
     26 H2A          1.9630     0.0000     2.1350 ha         1 119       0.139750
     27 H3A          4.4290     0.0020     2.1360 ha         1 119       0.156125
     28 H4A          5.6630     0.0020     0.0010 ha         1 119       0.157000
     29 H5A          4.4300    -0.0000    -2.1340 ha         1 119       0.156125
     30 H6A          1.9650    -0.0010    -2.1360 ha         1 119       0.139750
     31 H6C         -1.0060    -2.5490    -0.9500 ha         1 119       0.139750
     32 H5C         -1.8280    -3.3050    -3.1490 ha         1 119       0.156125
     33 H4C         -1.8850    -1.7350    -5.0490 ha         1 119       0.157000
     34 H3C         -1.1250     0.5920    -4.7500 ha         1 119       0.156125
     35 H2C         -0.3060     1.3480    -2.5500 ha         1 119       0.139750
     36 H6D         -2.3980    -0.0050     1.6320 ha         1 119       0.139750
     37 H5D         -3.2200    -1.5320     3.3850 ha         1 119       0.156125
     38 H4D         -1.8870    -3.5040     4.0270 ha         1 119       0.157000
     39 H3D          0.2640    -3.9540     2.9110 ha         1 119       0.156125
     40 H2D          1.0850    -2.4290     1.1560 ha         1 119       0.139750
     41 H5B          0.3570     4.5650     1.7910 ha         1 119       0.156125
     42 H4B         -1.8860     5.2400     1.0210 ha         1 119       0.157000
     43 H3B         -3.3100     3.6310    -0.1900 ha         1 119       0.156125
     44 H2B         -2.4880     1.3490    -0.6340 ha         1 119       0.139750
     45 H6B          1.1780     2.2830     1.3480 ha         1 119       0.139750
@<TRIPOS>BOND
     1     1     2 1
     2     1     8 1
     3     1    14 1
     4     1    25 1
     5     2     3 ar
     6     2     7 ar
     7     3     4 ar
     8     3    26 1
     9     4     5 ar
    10     4    27 1
    11     5     6 ar
    12     5    28 1
    13     6     7 ar
    14     6    29 1
    15     7    30 1
    16     8     9 ar
    17     8    13 ar
    18     9    10 ar
    19     9    31 1
    20    10    11 ar
    21    10    32 1
    22    11    12 ar
    23    11    33 1
    24    12    13 ar
    25    12    34 1
    26    13    35 1
    27    14    15 ar
    28    14    19 ar
    29    15    16 ar
    30    15    36 1
    31    16    17 ar
    32    16    37 1
    33    17    18 ar
    34    17    38 1
    35    18    19 ar
    36    18    39 1
    37    19    40 1
    38    20    21 ar
    39    20    25 ar
    40    20    45 1
    41    21    22 ar
    42    21    41 1
    43    22    23 ar
    44    22    42 1
    45    23    24 ar
    46    23    43 1
    47    24    25 ar
    48    24    44 1
@<TRIPOS>SUBSTRUCTURE
     1 119         1 TEMP              0 ****  ****    0 ROOT
