@<TRIPOS>MOLECULE
11A
   34    33     1     0     0
SMALL
bcc


@<TRIPOS>ATOM
      1 CAA         -0.3220     0.1800     0.4500 c3         1 11A      -0.091100
      2 CAD          1.1080     0.6420     0.3370 c3         1 11A      -0.081400
      3 CAE          2.0370    -0.2170     1.1680 c3         1 11A      -0.076400
      4 CAF          3.4780     0.2390     1.0840 c3         1 11A      -0.078400
      5 CAG          4.1400    -0.1630    -0.2170 c3         1 11A      -0.079400
      6 CAH          5.5850     0.2850    -0.2610 c3         1 11A      -0.078400
      7 CAI          6.2480    -0.1170    -1.5610 c3         1 11A      -0.080400
      8 CAJ          7.6940     0.3300    -1.6090 c3         1 11A      -0.074400
      9 CAK          8.3760    -0.0670    -2.9020 c3         1 11A      -0.067400
     10 CAL          8.6610    -1.5460    -2.9970 c3         1 11A      -0.194400
     11 CAM          9.5660    -1.8650    -4.2000 c          1 11A       0.907600
     12 OAC          9.2530    -2.8540    -4.9240 o          1 11A      -0.853800
     13 OAB         10.5860    -1.1430    -4.3990 o          1 11A      -0.853800
     14 HAA1        -0.4240    -0.8750     0.0950 hc         1 11A       0.028033
     15 HAA2        -0.6700     0.2270     1.5100 hc         1 11A       0.028033
     16 HAA3        -0.9900     0.8260    -0.1700 hc         1 11A       0.028033
     17 HAD1         1.1860     1.7100     0.6730 hc         1 11A       0.040700
     18 HAD2         1.4300     0.6100    -0.7380 hc         1 11A       0.040700
     19 HAE1         1.7030    -0.1840     2.2400 hc         1 11A       0.034700
     20 HAE2         1.9600    -1.2850     0.8310 hc         1 11A       0.034700
     21 HAF1         4.0520    -0.2100     1.9390 hc         1 11A       0.035700
     22 HAF2         3.5290     1.3530     1.2020 hc         1 11A       0.035700
     23 HAG1         4.0900    -1.2770    -0.3370 hc         1 11A       0.039700
     24 HAG2         3.5830     0.2870    -1.0800 hc         1 11A       0.039700
     25 HAH1         6.1450    -0.1660     0.6000 hc         1 11A       0.031200
     26 HAH2         5.6380     1.3990    -0.1400 hc         1 11A       0.031200
     27 HAI1         6.2010    -1.2320    -1.6820 hc         1 11A       0.042700
     28 HAI2         5.6880     0.3310    -2.4230 hc         1 11A       0.042700
     29 HAJ1         7.7350     1.4460    -1.4940 hc         1 11A       0.020200
     30 HAJ2         8.2500    -0.1120    -0.7410 hc         1 11A       0.020200
     31 HAK1         7.7410     0.2470    -3.7720 hc         1 11A       0.044700
     32 HAK2         9.3520     0.4830    -2.9910 hc         1 11A       0.044700
     33 HAL1         7.7080    -2.1250    -3.0880 hc         1 11A       0.018700
     34 HAL2         9.1880    -1.8940    -2.0720 hc         1 11A       0.018700
@<TRIPOS>BOND
     1     1     2 1   
     2     1    14 1   
     3     1    15 1   
     4     1    16 1   
     5     2     3 1   
     6     2    17 1   
     7     2    18 1   
     8     3     4 1   
     9     3    19 1   
    10     3    20 1   
    11     4     5 1   
    12     4    21 1   
    13     4    22 1   
    14     5     6 1   
    15     5    23 1   
    16     5    24 1   
    17     6     7 1   
    18     6    25 1   
    19     6    26 1   
    20     7     8 1   
    21     7    27 1   
    22     7    28 1   
    23     8     9 1   
    24     8    29 1   
    25     8    30 1   
    26     9    10 1   
    27     9    31 1   
    28     9    32 1   
    29    10    11 1   
    30    10    33 1   
    31    10    34 1   
    32    11    12 1   
    33    11    13 1   
@<TRIPOS>SUBSTRUCTURE
     1 11A         1 TEMP              0 ****  ****    0 ROOT
