@<TRIPOS>MOLECULE
11A
   34    33     1     0     0
SMALL
bcc


@<TRIPOS>ATOM
      1 CAA         0.0040   -0.0000   -0.0130 c3        1 11A     -0.091100
      2 CAD         1.5100    0.0000    0.0130 c3        1 11A     -0.080400
      3 CAE         2.0420   -0.0000    1.4310 c3        1 11A     -0.079400
      4 CAF         3.5560    0.0000    1.4530 c3        1 11A     -0.078400
      5 CAG         4.0870   -0.0000    2.8700 c3        1 11A     -0.079400
      6 CAH         5.6000    0.0000    2.8930 c3        1 11A     -0.078400
      7 CAI         6.1320    0.0000    4.3110 c3        1 11A     -0.078400
      8 CAJ         7.6450    0.0000    4.3370 c3        1 11A     -0.079400
      9 CAK         8.1750    0.0000    5.7560 c3        1 11A     -0.062400
     10 CAL         9.6830    0.0000    5.7930 c3        1 11A     -0.193400
     11 CAM        10.2330   -0.0010    7.2300 c         1 11A      0.907600
     12 OAC        11.4920    0.0000    7.3640 o         1 11A     -0.854800
     13 OAB         9.4250   -0.0030    8.2020 o         1 11A     -0.854800
     14 HAA1       -0.3990   -0.9050    0.5030 hc        1 11A      0.029033
     15 HAA2       -0.3680    0.0000   -1.0660 hc        1 11A      0.029033
     16 HAA3       -0.4000    0.9040    0.5030 hc        1 11A      0.029033
     17 HAD1        1.8970    0.9030   -0.5300 hc        1 11A      0.036700
     18 HAD2        1.8970   -0.9020   -0.5310 hc        1 11A      0.036700
     19 HAE1        1.6590    0.9020    1.9760 hc        1 11A      0.038700
     20 HAE2        1.6590   -0.9030    1.9760 hc        1 11A      0.038700
     21 HAF1        3.9400   -0.9020    0.9080 hc        1 11A      0.036700
     22 HAF2        3.9400    0.9030    0.9080 hc        1 11A      0.036700
     23 HAG1        3.7040   -0.9020    3.4150 hc        1 11A      0.037700
     24 HAG2        3.7030    0.9020    3.4150 hc        1 11A      0.037700
     25 HAH1        5.9850    0.9020    2.3480 hc        1 11A      0.033700
     26 HAH2        5.9850   -0.9020    2.3480 hc        1 11A      0.033700
     27 HAI1        5.7480   -0.9020    4.8560 hc        1 11A      0.036700
     28 HAI2        5.7480    0.9020    4.8560 hc        1 11A      0.036700
     29 HAJ1        8.0300    0.9020    3.7920 hc        1 11A      0.024700
     30 HAJ2        8.0300   -0.9020    3.7920 hc        1 11A      0.024700
     31 HAK1        7.7950   -0.8980    6.3090 hc        1 11A      0.044700
     32 HAK2        7.7950    0.8990    6.3080 hc        1 11A      0.044700
     33 HAL1       10.0830   -0.9020    5.2660 hc        1 11A      0.018700
     34 HAL2       10.0830    0.9030    5.2670 hc        1 11A      0.018700
@<TRIPOS>BOND
     1    1    2 1   
     2    1   14 1   
     3    1   15 1   
     4    1   16 1   
     5    2    3 1   
     6    2   17 1   
     7    2   18 1   
     8    3    4 1   
     9    3   19 1   
    10    3   20 1   
    11    4    5 1   
    12    4   21 1   
    13    4   22 1   
    14    5    6 1   
    15    5   23 1   
    16    5   24 1   
    17    6    7 1   
    18    6   25 1   
    19    6   26 1   
    20    7    8 1   
    21    7   27 1   
    22    7   28 1   
    23    8    9 1   
    24    8   29 1   
    25    8   30 1   
    26    9   10 1   
    27    9   31 1   
    28    9   32 1   
    29   10   11 1   
    30   10   33 1   
    31   10   34 1   
    32   11   12 1   
    33   11   13 1   
@<TRIPOS>SUBSTRUCTURE
     1 11A         1 TEMP              0 ****  ****    0 ROOT
