@<TRIPOS>MOLECULE
molecule
   34    33     1     0     0
SMALL
bcc


@<TRIPOS>ATOM
      1 CAA          0.0000     0.0000     0.0000 c3         1 11A      -0.092100
      2 CAD          1.5300     0.0000     0.0000 c3         1 11A      -0.084400
      3 CAE          2.0400     0.0000     1.4420 c3         1 11A      -0.082400
      4 CAF          3.5700    -0.0000     1.4420 c3         1 11A      -0.082400
      5 CAG          4.0800    -0.0000     2.8850 c3         1 11A      -0.082400
      6 CAH          5.6100    -0.0000     2.8850 c3         1 11A      -0.083400
      7 CAI          6.1200    -0.0000     4.3270 c3         1 11A      -0.081400
      8 CAJ          7.6500    -0.0000     4.3270 c3         1 11A      -0.088400
      9 CAK          8.1600    -0.0000     5.7700 c3         1 11A      -0.063400
     10 CAL          9.6900    -0.0000     5.7700 c3         1 11A      -0.182400
     11 CAM         10.1920    -0.0000     7.1900 c          1 11A       0.890600
     12 OAC         11.5120    -0.0000     7.4350 o          1 11A      -0.858300
     13 OAB          9.4070    -0.0010     8.1090 o          1 11A      -0.858300
     14 HAA1        -0.3610    -0.8850     0.5110 hc         1 11A       0.029700
     15 HAA2        -0.3610     0.0000    -1.0210 hc         1 11A       0.029700
     16 HAA3        -0.3610     0.8850     0.5110 hc         1 11A       0.029700
     17 HAD1         1.8910     0.8850    -0.5110 hc         1 11A       0.038700
     18 HAD2         1.8910    -0.8850    -0.5110 hc         1 11A       0.038700
     19 HAE1         1.6780     0.8850     1.9530 hc         1 11A       0.039700
     20 HAE2         1.6780    -0.8850     1.9530 hc         1 11A       0.039700
     21 HAF1         3.9310    -0.8840     0.9310 hc         1 11A       0.038700
     22 HAF2         3.9310     0.8840     0.9310 hc         1 11A       0.038700
     23 HAG1         3.7190    -0.8840     3.3960 hc         1 11A       0.039700
     24 HAG2         3.7190     0.8840     3.3960 hc         1 11A       0.039700
     25 HAH1         5.9710    -0.8850     2.3740 hc         1 11A       0.035700
     26 HAH2         5.9710     0.8850     2.3740 hc         1 11A       0.035700
     27 HAI1         5.7580     0.8850     4.8380 hc         1 11A       0.038700
     28 HAI2         5.7580    -0.8850     4.8380 hc         1 11A       0.038700
     29 HAJ1         8.0110    -0.8840     3.8160 hc         1 11A       0.028700
     30 HAJ2         8.0110     0.8840     3.8160 hc         1 11A       0.028700
     31 HAK1         7.7990     0.8840     6.2810 hc         1 11A       0.044700
     32 HAK2         7.7990    -0.8840     6.2810 hc         1 11A       0.044700
     33 HAL1        10.0510     0.8850     5.2590 hc         1 11A       0.026700
     34 HAL2        10.0510    -0.8850     5.2590 hc         1 11A       0.026700
@<TRIPOS>BOND
     1     1     2 1
     2     1    14 1
     3     1    15 1
     4     1    16 1
     5     2     3 1
     6     2    17 1
     7     2    18 1
     8     3     4 1
     9     3    19 1
    10     3    20 1
    11     4     5 1
    12     4    21 1
    13     4    22 1
    14     5     6 1
    15     5    23 1
    16     5    24 1
    17     6     7 1
    18     6    25 1
    19     6    26 1
    20     7     8 1
    21     7    27 1
    22     7    28 1
    23     8     9 1
    24     8    29 1
    25     8    30 1
    26     9    10 1
    27     9    31 1
    28     9    32 1
    29    10    11 1
    30    10    33 1
    31    10    34 1
    32    11    12 1
    33    11    13 1
@<TRIPOS>SUBSTRUCTURE
     1 11A         1 TEMP              0 ****  ****    0 ROOT
