@<TRIPOS>MOLECULE
molecule
   65    66     1     0     0
SMALL
bcc


@<TRIPOS>ATOM
      1 C39          0.0000     0.0000     0.0000 ca         1 11B      -0.103000
      2 C40          1.3830     0.0000     0.0000 ca         1 11B      -0.139500
      3 C41          2.0740     0.0000     1.1970 ca         1 11B      -0.131000
      4 C42          1.3820    -0.0010     2.3940 ca         1 11B      -0.139500
      5 C43          0.0000    -0.0000     2.3950 ca         1 11B      -0.103000
      6 C38         -0.6910    -0.0010     1.1970 ca         1 11B      -0.082300
      7 C35         -2.1980    -0.0010     1.1970 c3         1 11B       0.215700
      8 O34         -2.6820    -1.3700     1.1950 os         1 11B      -0.445900
      9 C32         -4.0170    -1.5470     1.1950 c          1 11B       0.745100
     10 O33         -4.7560    -0.5830     1.1970 o          1 11B      -0.632000
     11 N31         -4.5320    -2.7920     1.1950 ns         1 11B      -0.511900
     12 C25         -5.9840    -2.9840     1.1950 c3         1 11B      -0.035500
     13 C26         -6.3560    -4.0610     0.1740 c3         1 11B      -0.085400
     14 C27         -5.9410    -3.6030    -1.2250 c3         1 11B      -0.079400
     15 C28         -6.4250    -4.6210    -2.2600 c3         1 11B      -0.083400
     16 C29         -6.0100    -4.1620    -3.6590 c3         1 11B      -0.085400
     17 C30         -6.4940    -5.1820    -4.6940 c3         1 11B      -0.092100
     18 P24         -6.5280    -3.5070     2.8550 p5         1 11B       1.164600
     19 O36         -5.6960    -4.8080     3.3080 o          1 11B      -0.805000
     20 O37         -6.2920    -2.4090     3.8190 o          1 11B      -0.805000
     21 O23         -8.0980    -3.8600     2.8190 os         1 11B      -0.589200
     22 C1          -8.8470    -4.2020     3.9870 c3         1 11B       0.156400
     23 C2          -9.4230    -5.5850     3.8270 c          1 11B       0.889600
     24 O14        -10.1680    -6.1190     4.8080 o          1 11B      -0.826800
     25 O13         -9.2140    -6.2140     2.8170 o          1 11B      -0.826800
     26 C3          -9.9660    -3.2100     4.1740 ca         1 11B       0.042700
     27 C8         -10.2800    -2.7550     5.4400 ca         1 11B      -0.086000
     28 C4         -10.6740    -2.7530     3.0790 ca         1 11B      -0.077000
     29 C5         -11.7010    -1.8420     3.2460 ca         1 11B      -0.111000
     30 C6         -12.0230    -1.3870     4.5090 ca         1 11B      -0.260000
     31 C7         -11.3100    -1.8410     5.6120 ca         1 11B       0.032600
     32 N9         -11.6310    -1.3790     6.8920 nu         1 11B      -0.669600
     33 C10        -12.9480    -1.1940     7.2480 c2         1 11B       0.713100
     34 N12        -13.2440    -0.6560     8.3980 n2         1 11B      -0.854100
     35 N11        -13.9520    -1.5780     6.3900 nz         1 11B      -0.807600
     36 H39         -0.5420    -0.0000    -0.9380 ha         1 11B       0.137500
     37 H40          1.9250     0.0010    -0.9380 ha         1 11B       0.122000
     38 H41          3.1570    -0.0000     1.1970 ha         1 11B       0.118000
     39 H42          1.9240    -0.0010     3.3320 ha         1 11B       0.122000
     40 H43         -0.5410    -0.0010     3.3330 ha         1 11B       0.137500
     41 H351        -2.5600     0.5100     0.3130 h1         1 11B       0.051200
     42 H352        -2.5600     0.5080     2.0820 h1         1 11B       0.051200
     43 HN31        -3.9230    -3.5850     1.2360 hn         1 11B       0.332500
     44 H25         -6.4710    -2.0530     0.9320 h1         1 11B       0.081700
     45 H261        -5.8430    -4.9830     0.4190 hc         1 11B       0.065700
     46 H262        -7.4260    -4.2270     0.1980 hc         1 11B       0.065700
     47 H271        -4.8620    -3.5220    -1.2740 hc         1 11B       0.034700
     48 H272        -6.3850    -2.6370    -1.4350 hc         1 11B       0.034700
     49 H281        -7.5040    -4.7010    -2.2110 hc         1 11B       0.042200
     50 H282        -5.9810    -5.5870    -2.0500 hc         1 11B       0.042200
     51 H291        -6.4540    -3.1970    -3.8690 hc         1 11B       0.034200
     52 H292        -4.9310    -4.0820    -3.7080 hc         1 11B       0.034200
     53 H301        -6.1570    -4.8830    -5.6800 hc         1 11B       0.025700
     54 H302        -7.5760    -5.2250    -4.6800 hc         1 11B       0.025700
     55 H303        -6.0900    -6.1580    -4.4550 hc         1 11B       0.025700
     56 H1          -8.1950    -4.1800     4.8520 h1         1 11B       0.071700
     57 H8          -9.7220    -3.1110     6.2980 ha         1 11B       0.164000
     58 H4         -10.4230    -3.1080     2.0860 ha         1 11B       0.180000
     59 H5         -12.2550    -1.4870     2.3850 ha         1 11B       0.123000
     60 H6         -12.8280    -0.6730     4.6400 ha         1 11B       0.062000
     61 HN9        -10.9020    -1.1410     7.5350 hn         1 11B       0.508800
     62 HN12       -14.2010    -0.5210     8.6570 hn         1 11B       0.413400
     63 H111       -13.6540    -2.3740     5.8620 hn         1 11B       0.467133
     64 H112       -14.7690    -1.8150     6.9180 hn         1 11B       0.467133
     65 H113       -14.1650    -0.8240     5.7670 hn         1 11B       0.467133
@<TRIPOS>BOND
     1     1     6 ar
     2     1     2 ar
     3     1    36 1
     4     2     3 ar
     5     2    37 1
     6     3     4 ar
     7     3    38 1
     8     4     5 ar
     9     4    39 1
    10     5     6 ar
    11     5    40 1
    12     6     7 1
    13     7     8 1
    14     7    41 1
    15     7    42 1
    16     8     9 1
    17     9    11 1
    18     9    10 2
    19    11    12 1
    20    11    43 1
    21    12    13 1
    22    12    18 1
    23    12    44 1
    24    13    14 1
    25    13    45 1
    26    13    46 1
    27    14    15 1
    28    14    47 1
    29    14    48 1
    30    15    16 1
    31    15    49 1
    32    15    50 1
    33    16    17 1
    34    16    51 1
    35    16    52 1
    36    17    53 1
    37    17    54 1
    38    17    55 1
    39    18    19 1
    40    18    21 1
    41    18    20 1
    42    21    22 1
    43    22    26 1
    44    22    23 1
    45    22    56 1
    46    23    24 1
    47    23    25 1
    48    26    28 ar
    49    26    27 ar
    50    27    31 ar
    51    27    57 1
    52    28    29 ar
    53    28    58 1
    54    29    30 ar
    55    29    59 1
    56    30    31 ar
    57    30    60 1
    58    31    32 1
    59    32    33 1
    60    32    61 1
    61    33    35 1
    62    33    34 2
    63    34    62 1
    64    35    63 1
    65    35    64 1
    66    65    35 1
@<TRIPOS>SUBSTRUCTURE
     1 11B         1 TEMP              0 ****  ****    0 ROOT
