@<TRIPOS>MOLECULE
11B
   65    66     1     0     0
SMALL
bcc


@<TRIPOS>ATOM
      1 C39          0.0000     0.0000     0.0000 ca         1 11B      -0.076000
      2 C40          1.3830     0.0000     0.0000 ca         1 11B      -0.114500
      3 C41          2.0740     0.0000     1.1970 ca         1 11B      -0.108000
      4 C42          1.3820    -0.0010     2.3940 ca         1 11B      -0.114500
      5 C43          0.0000    -0.0000     2.3950 ca         1 11B      -0.076000
      6 C38         -0.6910    -0.0010     1.1970 ca         1 11B      -0.096300
      7 C35         -2.1980    -0.0010     1.1970 c3         1 11B       0.297700
      8 O34         -2.6820    -1.3700     1.1950 os         1 11B      -0.432900
      9 C32         -4.0170    -1.5470     1.1950 c          1 11B       0.654100
     10 O33         -4.7560    -0.5830     1.1970 o          1 11B      -0.690000
     11 N31         -4.5320    -2.7920     1.1950 ns         1 11B      -0.060900
     12 C25         -5.9840    -2.9840     1.1950 c3         1 11B      -0.008500
     13 C26         -6.3560    -4.0610     0.1740 c3         1 11B      -0.019400
     14 C27         -5.9410    -3.6030    -1.2250 c3         1 11B      -0.043400
     15 C28         -6.4250    -4.6210    -2.2600 c3         1 11B      -0.029400
     16 C29         -6.0100    -4.1620    -3.6590 c3         1 11B      -0.030400
     17 C30         -6.4940    -5.1820    -4.6940 c3         1 11B       0.005900
     18 P24         -6.5280    -3.5070     2.8550 p5         1 11B       0.646600
     19 O36         -5.6960    -4.8080     3.3080 o          1 11B      -0.646000
     20 O37         -6.2920    -2.4090     3.8190 o          1 11B      -0.646000
     21 O23         -8.0980    -3.8600     2.8190 os         1 11B      -0.473200
     22 C1          -8.8470    -4.2020     3.9870 c3         1 11B       0.198400
     23 C2          -9.4230    -5.5850     3.8270 c          1 11B       0.971600
     24 O14        -10.1680    -6.1190     4.8080 o          1 11B      -0.887300
     25 O13         -9.2140    -6.2140     2.8170 o          1 11B      -0.887300
     26 C3          -9.9660    -3.2100     4.1740 ca         1 11B       0.050700
     27 C8         -10.2800    -2.7550     5.4400 ca         1 11B      -0.039000
     28 C4         -10.6740    -2.7530     3.0790 ca         1 11B      -0.038000
     29 C5         -11.7010    -1.8420     3.2460 ca         1 11B      -0.081000
     30 C6         -12.0230    -1.3870     4.5090 ca         1 11B      -0.248000
     31 C7         -11.3100    -1.8410     5.6120 ca         1 11B      -0.151400
     32 N9         -11.6310    -1.3790     6.8920 nu         1 11B      -0.208600
     33 C10        -12.9480    -1.1940     7.2480 c2         1 11B       0.269100
     34 N12        -13.2440    -0.6560     8.3980 n2         1 11B      -0.753100
     35 N11        -13.9520    -1.5780     6.3900 nz         1 11B       0.152400
     36 H39         -0.5420    -0.0000    -0.9380 ha         1 11B       0.109500
     37 H40          1.9250     0.0010    -0.9380 ha         1 11B       0.095500
     38 H41          3.1570    -0.0000     1.1970 ha         1 11B       0.092000
     39 H42          1.9240    -0.0010     3.3320 ha         1 11B       0.095500
     40 H43         -0.5410    -0.0010     3.3330 ha         1 11B       0.109500
     41 H351        -2.5600     0.5080     2.0820 h1         1 11B       0.009700
     42 H352        -2.5600     0.5100     0.3130 h1         1 11B       0.009700
     43 HN31        -3.9230    -3.5860     1.2300 hn         1 11B       0.170500
     44 H25         -6.4710    -2.0530     0.9320 h1         1 11B       0.063700
     45 H261        -7.4260    -4.2270     0.1980 hc         1 11B       0.037700
     46 H262        -5.8430    -4.9830     0.4190 hc         1 11B       0.037700
     47 H271        -6.3850    -2.6370    -1.4350 hc         1 11B       0.006700
     48 H272        -4.8620    -3.5220    -1.2740 hc         1 11B       0.006700
     49 H281        -5.9810    -5.5870    -2.0500 hc         1 11B       0.016200
     50 H282        -7.5040    -4.7010    -2.2110 hc         1 11B       0.016200
     51 H291        -6.4540    -3.1970    -3.8690 hc         1 11B       0.006700
     52 H292        -4.9310    -4.0820    -3.7080 hc         1 11B       0.006700
     53 H301        -6.1840    -4.8670    -5.6830 hc         1 11B      -0.005633
     54 H302        -7.5740    -5.2480    -4.6580 hc         1 11B      -0.005633
     55 H303        -6.0640    -6.1520    -4.4740 hc         1 11B      -0.005633
     56 H1          -8.1950    -4.1800     4.8520 h1         1 11B       0.030700
     57 H8          -9.7220    -3.1110     6.2980 ha         1 11B       0.129000
     58 H4         -10.4230    -3.1080     2.0860 ha         1 11B       0.145000
     59 H5         -12.2550    -1.4870     2.3850 ha         1 11B       0.094000
     60 H6         -12.8280    -0.6730     4.6400 ha         1 11B       0.057000
     61 HN9        -10.9020    -1.1400     7.5340 hn         1 11B       0.316800
     62 HN12       -12.5140    -0.3770     9.0230 hn         1 11B       0.367400
     63 H111       -14.1500    -0.8320     5.7530 hn         1 11B       0.233133
     64 H112       -14.7760    -1.7930     6.9160 hn         1 11B       0.233133
     65 H113       -13.6630    -2.3880     5.8780 hn         1 11B       0.233133
@<TRIPOS>BOND
     1     1     2 ar  
     2     1     6 ar  
     3     1    36 1   
     4     2     3 ar  
     5     2    37 1   
     6     3     4 ar  
     7     3    38 1   
     8     4     5 ar  
     9     4    39 1   
    10     5     6 ar  
    11     5    40 1   
    12     6     7 1   
    13     7     8 1   
    14     7    41 1   
    15     7    42 1   
    16     8     9 1   
    17     9    10 2   
    18     9    11 1   
    19    11    12 1   
    20    11    43 1   
    21    12    13 1   
    22    12    18 1   
    23    12    44 1   
    24    13    14 1   
    25    13    45 1   
    26    13    46 1   
    27    14    15 1   
    28    14    47 1   
    29    14    48 1   
    30    15    16 1   
    31    15    49 1   
    32    15    50 1   
    33    16    17 1   
    34    16    51 1   
    35    16    52 1   
    36    17    53 1   
    37    17    54 1   
    38    17    55 1   
    39    18    19 1   
    40    18    20 1   
    41    18    21 1   
    42    21    22 1   
    43    22    23 1   
    44    22    26 1   
    45    22    56 1   
    46    23    24 1   
    47    23    25 1   
    48    26    27 ar  
    49    26    28 ar  
    50    27    31 ar  
    51    27    57 1   
    52    28    29 ar  
    53    28    58 1   
    54    29    30 ar  
    55    29    59 1   
    56    30    31 ar  
    57    30    60 1   
    58    31    32 1   
    59    32    33 1   
    60    32    61 1   
    61    33    34 2   
    62    33    35 1   
    63    34    62 1   
    64    35    63 1   
    65    35    64 1   
    66    35    65 1   
@<TRIPOS>SUBSTRUCTURE
     1 11B         1 TEMP              0 ****  ****    0 ROOT
