@<TRIPOS>MOLECULE
11B
   66    67     1     0     0
SMALL
bcc


@<TRIPOS>ATOM
      1 C39         -0.7860    -0.9460    -0.3010 ca         1 11B      -0.106000
      2 C40          0.5350    -0.8430    -0.7370 ca         1 11B      -0.131000
      3 C41          1.3810     0.1200    -0.1900 ca         1 11B      -0.120000
      4 C42          0.9050     0.9900     0.7920 ca         1 11B      -0.131000
      5 C43         -0.4150     0.8980     1.2270 ca         1 11B      -0.106000
      6 C38         -1.2630    -0.0760     0.6850 ca         1 11B      -0.111300
      7 C35         -2.6550    -0.1770     1.2030 c3         1 11B       0.196700
      8 O34         -3.4790    -0.6650     0.1120 os         1 11B      -0.395900
      9 C32         -4.7810    -0.8960     0.4290 c          1 11B       0.621100
     10 O33         -5.2240    -0.6800     1.5560 o          1 11B      -0.488000
     11 N31         -5.5410    -1.4310    -0.7030 ny         1 11B      -0.609800
     12 C25         -6.6010    -0.5350    -1.2070 c3         1 11B      -0.076700
     13 C26         -6.1530     0.6120    -2.0790 c3         1 11B      -0.102400
     14 C27         -5.4940     1.7580    -1.3470 c3         1 11B      -0.077400
     15 C28         -6.4910     2.6150    -0.5950 c3         1 11B      -0.082400
     16 C29         -5.8300     3.7720     0.1240 c3         1 11B      -0.077400
     17 C30         -5.4210     4.8820    -0.8100 c3         1 11B      -0.093100
     18 P24         -7.6130    -1.5580    -2.2610 p5         1 11B       1.304600
     19 O36         -7.7830    -2.7850    -1.4500 o          1 11B      -0.803000
     20 O37         -8.6300    -0.7310    -2.9130 o          1 11B      -0.803000
     21 O23         -6.4390    -1.9190    -3.3720 os         1 11B      -0.586200
     22 C1          -6.2180    -3.2610    -3.6870 c3         1 11B       0.108400
     23 C2          -4.7540    -3.6590    -3.3500 c          1 11B       0.947600
     24 O14         -4.1440    -3.0890    -2.4020 o          1 11B      -0.870300
     25 O13         -4.2000    -4.6080    -3.9940 o          1 11B      -0.870300
     26 C3          -6.4920    -3.5190    -5.1420 ca         1 11B      -0.050300
     27 C8          -6.3240    -4.8330    -5.5910 ca         1 11B      -0.114000
     28 C4          -6.8070    -2.5110    -6.0590 ca         1 11B      -0.076000
     29 C5          -6.8950    -2.8130    -7.4190 ca         1 11B      -0.125000
     30 C6          -6.5900    -4.0880    -7.8900 ca         1 11B      -0.147000
     31 C7          -6.2620    -5.1030    -6.9700 ca         1 11B      -0.001400
     32 N9          -5.8510    -6.4040    -7.3950 nu         1 11B      -0.642600
     33 C10         -4.4570    -6.6820    -7.3100 c2         1 11B       0.726100
     34 N12         -3.8370    -7.4210    -8.1700 n2         1 11B      -0.795100
     35 N11         -3.7920    -6.1240    -6.0600 nz         1 11B      -0.870600
     36 H39         -1.4600    -1.7020    -0.7390 ha         1 11B       0.148000
     37 H40          0.9050    -1.5260    -1.5160 ha         1 11B       0.135500
     38 H41          2.4230     0.1970    -0.5340 ha         1 11B       0.133000
     39 H42          1.5720     1.7520     1.2220 ha         1 11B       0.135500
     40 H43         -0.7900     1.5890     1.9960 ha         1 11B       0.148000
     41 H351        -3.0630     0.8180     1.5250 h1         1 11B       0.070700
     42 H352        -2.7250    -0.9090     2.0520 h1         1 11B       0.070700
     43 HN31        -4.9010    -1.6810    -1.5130 hn         1 11B       0.519800
     44 H25         -7.2010    -0.1570    -0.3370 hx         1 11B       0.117700
     45 H261        -7.0840     0.9780    -2.6040 hc         1 11B       0.094200
     46 H262        -5.4630     0.2200    -2.8760 hc         1 11B       0.094200
     47 H271        -4.7210     1.3670    -0.6340 hc         1 11B       0.036700
     48 H272        -4.9530     2.3970    -2.0960 hc         1 11B       0.036700
     49 H281        -7.2620     3.0070    -1.3110 hc         1 11B       0.046200
     50 H282        -7.0320     1.9810     0.1570 hc         1 11B       0.046200
     51 H291        -4.9300     3.4010     0.6830 hc         1 11B       0.036200
     52 H292        -6.5470     4.1790     0.8860 hc         1 11B       0.036200
     53 H301        -4.9680     5.7250    -0.2340 hc         1 11B       0.032700
     54 H302        -4.6690     4.5210    -1.5530 hc         1 11B       0.032700
     55 H303        -6.3060     5.2720    -1.3690 hc         1 11B       0.032700
     56 H1          -6.8860    -3.9250    -3.0530 h1         1 11B       0.098700
     57 H8          -6.1940    -5.6300    -4.8400 ha         1 11B       0.154000
     58 H4          -6.9760    -1.4820    -5.7010 ha         1 11B       0.178000
     59 H5          -7.1810    -2.0260    -8.1340 ha         1 11B       0.143000
     60 H6          -6.6060    -4.2910    -8.9720 ha         1 11B       0.133000
     61 HN9         -6.2520    -6.6910    -8.2710 hn         1 11B       0.449800
     62 HN12        -2.9010    -7.7080    -7.9890 hn         1 11B       0.430400
     63 H111        -4.2060    -6.5310    -5.2050 hn         1 11B       0.483467
     64 H112        -3.9620    -5.0950    -5.9510 hn         1 11B       0.483467
     65 H113        -2.7890    -6.2930    -6.0590 hn         1 11B       0.483467
     66 H312        -6.0210    -2.3140    -0.4050 hn         1 11B       0.519800
@<TRIPOS>BOND
     1     1     2 ar  
     2     1     6 ar  
     3     1    36 1   
     4     2     3 ar  
     5     2    37 1   
     6     3     4 ar  
     7     3    38 1   
     8     4     5 ar  
     9     4    39 1   
    10     5     6 ar  
    11     5    40 1   
    12     6     7 1   
    13     7     8 1   
    14     7    41 1   
    15     7    42 1   
    16     8     9 1   
    17     9    10 2   
    18     9    11 1   
    19    11    12 1   
    20    11    43 1   
    21    11    66 1   
    22    12    13 1   
    23    12    18 1   
    24    12    44 1   
    25    13    14 1   
    26    13    45 1   
    27    13    46 1   
    28    14    15 1   
    29    14    47 1   
    30    14    48 1   
    31    15    16 1   
    32    15    49 1   
    33    15    50 1   
    34    16    17 1   
    35    16    51 1   
    36    16    52 1   
    37    17    53 1   
    38    17    54 1   
    39    17    55 1   
    40    18    19 1   
    41    18    20 1   
    42    18    21 1   
    43    21    22 1   
    44    22    23 1   
    45    22    26 1   
    46    22    56 1   
    47    23    24 1   
    48    23    25 1   
    49    26    27 ar  
    50    26    28 ar  
    51    27    31 ar  
    52    27    57 1   
    53    28    29 ar  
    54    28    58 1   
    55    29    30 ar  
    56    29    59 1   
    57    30    31 ar  
    58    30    60 1   
    59    31    32 1   
    60    32    33 1   
    61    32    61 1   
    62    33    34 2   
    63    33    35 1   
    64    34    62 1   
    65    35    63 1   
    66    35    64 1   
    67    35    65 1   
@<TRIPOS>SUBSTRUCTURE
     1 11B         1 TEMP              0 ****  ****    0 ROOT
