@<TRIPOS>MOLECULE
11C
   20    19     1     0     0
SMALL
bcc


@<TRIPOS>ATOM
      1 C          -0.0430    0.1340   -0.0650 c         1 11C      0.905600
      2 N           1.9260   -1.1800   -0.9020 n3        1 11C     -0.907800
      3 O          -0.7620   -0.9110   -0.0660 o         1 11C     -0.861800
      4 CA          1.5100   -0.0200   -0.1280 c3        1 11C      0.037500
      5 CB          2.0390    0.0330    1.3120 c3        1 11C     -0.090400
      6 OAB         6.0830   -0.9440    2.6650 o         1 11C     -0.872300
      7 OAD         6.1820    1.1130    3.5000 o         1 11C     -0.872300
      8 CAF         3.5510    0.0770    1.4100 c3        1 11C     -0.065400
      9 CAG         4.0140    0.3020    2.8320 c3        1 11C     -0.181400
     10 CAI         5.5300    0.1470    2.9960 c         1 11C      0.903600
     11 OXT        -0.5190    1.3040   -0.0170 o         1 11C     -0.861800
     12 HN          1.1440   -1.8080   -0.9860 hn        1 11C      0.330300
     13 HNA         2.6540   -1.6700   -0.4160 hn        1 11C      0.330300
     14 HA          1.9140    0.8820   -0.6740 h1        1 11C      0.040700
     15 HB          1.6520   -0.8520    1.8830 hc        1 11C      0.033200
     16 HBA         1.6070    0.9520    1.7890 hc        1 11C      0.033200
     17 HAF         3.9430    0.8970    0.7540 hc        1 11C      0.033200
     18 HAFA        4.0000   -0.8830    1.0410 hc        1 11C      0.033200
     19 HAG         3.7100    1.3240    3.1740 hc        1 11C      0.015700
     20 HAGA        3.5200   -0.4440    3.5080 hc        1 11C      0.015700
@<TRIPOS>BOND
     1    1    3 1   
     2    1    4 1   
     3    1   11 1   
     4    2    4 1   
     5    2   12 1   
     6    2   13 1   
     7    4    5 1   
     8    4   14 1   
     9    5    8 1   
    10    5   15 1   
    11    5   16 1   
    12    6   10 1   
    13    7   10 1   
    14    8    9 1   
    15    8   17 1   
    16    8   18 1   
    17    9   10 1   
    18    9   19 1   
    19    9   20 1   
@<TRIPOS>SUBSTRUCTURE
     1 11C         1 TEMP              0 ****  ****    0 ROOT
