@<TRIPOS>MOLECULE
11D
   64    65     1     0     0
SMALL
bcc


@<TRIPOS>ATOM
      1 C1           0.4780     1.0330     0.2250 ca         1 11D      -0.038000
      2 C2           1.8670     1.0220     0.5300 ca         1 11D      -0.063000
      3 C3           2.2730     0.7670     1.8690 ca         1 11D       0.068000
      4 C4           1.2900     0.5120     2.8730 ca         1 11D      -0.368500
      5 C5          -0.0460     0.5080     2.5170 ca         1 11D       0.001000
      6 C6          -0.4580     0.7730     1.1970 ca         1 11D      -0.179000
      7 C7           2.8650     1.2810    -0.4820 ca         1 11D       0.137600
      8 C8           4.2040     1.3080    -0.1170 ca         1 11D      -0.186000
      9 C9           4.5930     1.0550     1.2140 ca         1 11D      -0.083000
     10 C10          3.6620     0.7780     2.1810 ca         1 11D      -0.168000
     11 N11          2.4360     1.5480    -1.8180 nh         1 11D      -0.643000
     12 C12          2.0230     0.3720    -2.5560 c3         1 11D       0.164600
     13 C13          3.2990     2.4210    -2.5800 c3         1 11D       0.164600
     14 S14          1.6600     0.2050     4.5060 sy         1 11D       1.510200
     15 O15          0.4630    -0.1950     5.1520 o          1 11D      -0.658300
     16 O16          2.7340    -0.7040     4.5920 o          1 11D      -0.658300
     17 N17          2.1280     1.6510     5.0400 n7         1 11D      -0.931100
     18 C18          1.3180     2.5290     5.8340 c3         1 11D       0.228800
     19 C19          2.0020     3.0140     7.1150 c3         1 11D      -0.101400
     20 C20          1.1520     4.0670     7.7940 c3         1 11D      -0.077400
     21 C21          1.8370     4.6560     9.0110 c3         1 11D      -0.076400
     22 C22          2.9400     5.6320     8.6570 c3         1 11D      -0.082400
     23 C23          2.4080     7.0010     8.2860 c3         1 11D      -0.079400
     24 C24          3.4200     7.8170     7.5060 c3         1 11D      -0.076400
     25 C25          3.5620     7.3580     6.0660 c3         1 11D      -0.084400
     26 C26          4.9150     6.7360     5.7870 c3         1 11D      -0.077400
     27 C27          4.9760     6.1260     4.4000 c3         1 11D      -0.126400
     28 C28          4.1520     4.8800     4.3220 c          1 11D       0.644100
     29 O29          4.3850     3.7610     4.7940 o          1 11D      -0.573000
     30 O30          2.9890     5.0160     3.6280 oh         1 11D      -0.604100
     31 H1           0.1440     1.2640    -0.8000 ha         1 11D       0.150000
     32 H5          -0.8190     0.2930     3.2800 ha         1 11D       0.164000
     33 H6          -1.5320     0.7730     0.9580 ha         1 11D       0.141000
     34 H8           4.9910     1.5140    -0.8590 ha         1 11D       0.137000
     35 H9           5.6660     1.0670     1.4640 ha         1 11D       0.139000
     36 H10          3.9990     0.5300     3.2010 ha         1 11D       0.158000
     37 H12          1.4050     0.7110    -3.4290 h1         1 11D       0.038533
     38 H12A         1.4000    -0.2890    -1.8990 h1         1 11D       0.038533
     39 H12B         2.8930    -0.2260    -2.9430 h1         1 11D       0.038533
     40 H13          2.7190     2.7850    -3.4690 h1         1 11D       0.038533
     41 H13A         3.5920     3.3010    -1.9510 h1         1 11D       0.038533
     42 H13B         4.2330     1.9150    -2.9510 h1         1 11D       0.038533
     43 HN17         2.5090     4.1700     3.6150 ho         1 11D       0.447000
     44 H18          0.3590     1.9990     6.1090 h1         1 11D       0.045200
     45 H18A         1.0440     3.4350     5.2140 h1         1 11D       0.045200
     46 H19          3.0120     3.4370     6.8630 hc         1 11D       0.056200
     47 H19A         2.1660     2.1510     7.8100 hc         1 11D       0.056200
     48 H20          0.1780     3.6060     8.1080 hc         1 11D       0.040700
     49 H20A         0.9120     4.8860     7.0650 hc         1 11D       0.040700
     50 H21          2.2690     3.8230     9.6270 hc         1 11D       0.042200
     51 H21A         1.0710     5.1770     9.6440 hc         1 11D       0.042200
     52 H22          3.6350     5.7360     9.5330 hc         1 11D       0.041700
     53 H22A         3.5460     5.2220     7.8060 hc         1 11D       0.041700
     54 H23          1.4670     6.8970     7.6830 hc         1 11D       0.041200
     55 H23A         2.1340     7.5560     9.2230 hc         1 11D       0.041200
     56 H24          4.4120     7.7740     8.0270 hc         1 11D       0.041200
     57 H24A         3.0920     8.8910     7.5150 hc         1 11D       0.041200
     58 H25          3.4170     8.2330     5.3780 hc         1 11D       0.045700
     59 H25A         2.7600     6.6120     5.8130 hc         1 11D       0.045700
     60 H26          5.7140     7.5190     5.8680 hc         1 11D       0.056700
     61 H26A         5.1420     5.9450     6.5520 hc         1 11D       0.056700
     62 H27          6.0350     5.8470     4.1520 hc         1 11D       0.079700
     63 H27A         4.6120     6.8630     3.6360 hc         1 11D       0.079700
     64 H172         3.0540     1.9930     4.8970 hn         1 11D       0.467800
@<TRIPOS>BOND
     1     1     2 ar  
     2     1     6 ar  
     3     1    31 1   
     4     2     3 ar  
     5     2     7 ar  
     6     3     4 ar  
     7     3    10 ar  
     8     4     5 ar  
     9     4    14 1   
    10     5     6 ar  
    11     5    32 1   
    12     6    33 1   
    13     7     8 ar  
    14     7    11 1   
    15     8     9 ar  
    16     8    34 1   
    17     9    10 ar  
    18     9    35 1   
    19    10    36 1   
    20    11    12 1   
    21    11    13 1   
    22    12    37 1   
    23    12    38 1   
    24    12    39 1   
    25    13    40 1   
    26    13    41 1   
    27    13    42 1   
    28    14    15 2   
    29    14    16 2   
    30    14    17 1   
    31    17    18 1   
    32    17    64 1   
    33    18    19 1   
    34    18    44 1   
    35    18    45 1   
    36    19    20 1   
    37    19    46 1   
    38    19    47 1   
    39    20    21 1   
    40    20    48 1   
    41    20    49 1   
    42    21    22 1   
    43    21    50 1   
    44    21    51 1   
    45    22    23 1   
    46    22    52 1   
    47    22    53 1   
    48    23    24 1   
    49    23    54 1   
    50    23    55 1   
    51    24    25 1   
    52    24    56 1   
    53    24    57 1   
    54    25    26 1   
    55    25    58 1   
    56    25    59 1   
    57    26    27 1   
    58    26    60 1   
    59    26    61 1   
    60    27    28 1   
    61    27    62 1   
    62    27    63 1   
    63    28    29 2   
    64    28    30 1   
    65    30    43 1   
@<TRIPOS>SUBSTRUCTURE
     1 11D         1 TEMP              0 ****  ****    0 ROOT
