@<TRIPOS>MOLECULE
molecule
   25    26     1     0     0
SMALL
bcc


@<TRIPOS>ATOM
      1 O3           0.0000     0.0000     0.0000 o          1 11E      -0.844800
      2 C9           1.3420     0.0000     0.0000 c          1 11E       0.883600
      3 O2           1.9460     0.0000     1.0470 o          1 11E      -0.844800
      4 C8           2.0970    -0.0010    -1.3040 c3         1 11E      -0.004000
      5 N1           3.5370    -0.0010    -1.0360 ns         1 11E      -0.538900
      6 C7           4.4130    -0.0020    -2.0600 c          1 11E       0.648700
      7 O1           4.0090    -0.0020    -3.2070 o          1 11E      -0.643100
      8 C3           5.8630    -0.0020    -1.7900 ca         1 11E      -0.114600
      9 C2           6.3330    -0.0010    -0.4700 ca         1 11E      -0.105000
     10 C4           6.7720    -0.0090    -2.8460 ca         1 11E      -0.045000
     11 C5           8.1350    -0.0090    -2.5860 ca         1 11E      -0.042100
     12 S1           9.5220    -0.0170    -3.6730 ss         1 11E      -0.205100
     13 C6           8.6070    -0.0030    -1.2670 ca         1 11E       0.121400
     14 C1           7.6660    -0.0010    -0.2120 ca         1 11E      -0.090000
     15 N2           9.9490    -0.0040    -1.1930 nc         1 11E      -0.594100
     16 C10         10.6160    -0.0110    -2.2980 cd         1 11E       0.641100
     17 N3          11.9920    -0.0140    -2.3870 nv         1 11E      -0.993800
     18 H2           1.8350    -0.8850    -1.8720 h1         1 11E       0.048200
     19 H3           1.8350     0.8840    -1.8720 h1         1 11E       0.048200
     20 H4           3.8710     0.0120    -0.0920 hn         1 11E       0.333500
     21 H5           5.6270     0.0000     0.3520 ha         1 11E       0.156000
     22 H6           6.4150     0.0320    -3.8680 ha         1 11E       0.162000
     23 H7           8.0130    -0.0010     0.8150 ha         1 11E       0.142000
     24 H8          12.4890    -0.8810    -2.4220 hn         1 11E       0.439800
     25 H9          12.4920     0.8520    -2.4320 hn         1 11E       0.439800
@<TRIPOS>BOND
     1     3     2 1
     2     1     2 1
     3    12    16 1
     4    12    11 1
     5     2     4 1
     6    17    16 1
     7    16    15 2
     8    11    10 ar
     9    11    13 ar
    10    10     8 ar
    11     4     5 1
    12     5     6 1
    13    15    13 1
    14    13    14 ar
    15     8     6 1
    16     8     9 ar
    17     6     7 2
    18    14     9 ar
    19     4    18 1
    20     4    19 1
    21     5    20 1
    22     9    21 1
    23    10    22 1
    24    14    23 1
    25    17    24 1
    26    17    25 1
@<TRIPOS>SUBSTRUCTURE
     1 11E         1 TEMP              0 ****  ****    0 ROOT
