@<TRIPOS>MOLECULE
11E
   26    27     1     0     0
SMALL
bcc


@<TRIPOS>ATOM
      1 O3           2.6390    -0.0640     1.3530 o          1 11E      -0.764800
      2 C9           1.9240    -0.6980     0.5620 c          1 11E       0.923600
      3 O2           0.9100    -1.4190     0.7930 o          1 11E      -0.764800
      4 C8           2.3480    -0.6130    -0.9630 c3         1 11E      -0.073200
      5 N1           1.2910    -1.2020    -1.8330 ny         1 11E      -0.658800
      6 C7           1.8020    -2.2500    -2.7660 c          1 11E       0.574700
      7 O1           1.8400    -1.9080    -3.9510 o          1 11E      -0.497100
      8 C3           2.1820    -3.5520    -2.2260 ca         1 11E      -0.222600
      9 C2           2.6880    -4.4940    -3.1600 ca         1 11E      -0.054000
     10 C4           2.0640    -3.8930    -0.8750 ca         1 11E      -0.001000
     11 C5           2.4490    -5.1640    -0.4660 ca         1 11E      -0.149100
     12 S1           2.4140    -5.8360     1.0840 ss         1 11E       0.004900
     13 C6           2.9660    -6.1230    -1.4070 ca         1 11E       0.189400
     14 C1           3.0750    -5.7570    -2.7690 ca         1 11E      -0.120000
     15 N2           3.3300    -7.3490    -0.8690 nc         1 11E      -0.624100
     16 C10          3.0810    -7.3450     0.4620 cd         1 11E       0.605100
     17 N3           3.2370    -8.4250     1.2910 nv         1 11E      -0.882800
     18 H2           2.5070     0.4600    -1.2430 hx         1 11E       0.092700
     19 H3           3.3060    -1.1810    -1.0870 hx         1 11E       0.092700
     20 H4           0.8350    -0.4630    -2.3730 hn         1 11E       0.464300
     21 H5           2.7680    -4.1950    -4.2200 ha         1 11E       0.158000
     22 H6           1.6780    -3.1830    -0.1110 ha         1 11E       0.203000
     23 H7           3.4670    -6.4810    -3.5000 ha         1 11E       0.165000
     24 H8           3.7040    -9.2290     0.9370 hn         1 11E       0.437300
     25 H9           3.3390    -8.2370     2.2600 hn         1 11E       0.437300
     26 H12          0.5880    -1.6230    -1.1740 hn         1 11E       0.464300
@<TRIPOS>BOND
     1     1     2 1   
     2     2     3 1   
     3     2     4 1   
     4     4     5 1   
     5     4    18 1   
     6     4    19 1   
     7     5     6 1   
     8     5    20 1   
     9     5    26 1   
    10     6     7 2   
    11     6     8 1   
    12     8     9 ar  
    13     8    10 ar  
    14     9    14 ar  
    15     9    21 1   
    16    10    11 ar  
    17    10    22 1   
    18    11    12 1   
    19    11    13 ar  
    20    12    16 1   
    21    13    14 ar  
    22    13    15 1   
    23    14    23 1   
    24    15    16 2   
    25    16    17 1   
    26    17    24 1   
    27    17    25 1   
@<TRIPOS>SUBSTRUCTURE
     1 11E         1 TEMP              0 ****  ****    0 ROOT
