@<TRIPOS>MOLECULE
11E
   25    26     1     0     0
SMALL
bcc


@<TRIPOS>ATOM
      1 O3           0.0000     0.0000     0.0000 o          1 11E      -0.890800
      2 C9           1.3420     0.0000     0.0000 c          1 11E       0.972600
      3 O2           1.9460     0.0000     1.0470 o          1 11E      -0.890800
      4 C8           2.0970    -0.0010    -1.3040 c3         1 11E      -0.076000
      5 N1           3.5370    -0.0010    -1.0360 ns         1 11E      -0.132900
      6 C7           4.4130    -0.0020    -2.0600 c          1 11E       0.553700
      7 O1           4.0090    -0.0020    -3.2070 o          1 11E      -0.691100
      8 C3           5.8630    -0.0020    -1.7900 ca         1 11E      -0.110600
      9 C2           6.3330    -0.0010    -0.4700 ca         1 11E      -0.088000
     10 C4           6.7720    -0.0090    -2.8460 ca         1 11E      -0.008000
     11 C5           8.1350    -0.0090    -2.5860 ca         1 11E      -0.004100
     12 S1           9.5220    -0.0170    -3.6730 ss         1 11E      -0.291100
     13 C6           8.6070    -0.0030    -1.2670 ca         1 11E       0.059400
     14 C1           7.6660    -0.0010    -0.2120 ca         1 11E      -0.055000
     15 N2           9.9490    -0.0040    -1.1930 nc         1 11E      -0.447100
     16 C10         10.6160    -0.0110    -2.2980 cd         1 11E       0.460100
     17 N3          11.9920    -0.0140    -2.3870 nv         1 11E      -0.529800
     18 H2           1.8350    -0.8850    -1.8720 h1         1 11E       0.026700
     19 H3           1.8350     0.8840    -1.8720 h1         1 11E       0.026700
     20 H4           3.8710     0.0120    -0.0920 hn         1 11E       0.198500
     21 H5           5.6270     0.0000     0.3520 ha         1 11E       0.129000
     22 H6           6.4150     0.0320    -3.8680 ha         1 11E       0.136000
     23 H7           8.0130    -0.0010     0.8150 ha         1 11E       0.110000
     24 H8          12.4890    -0.8810    -2.4220 hn         1 11E       0.270800
     25 H9          12.4920     0.8520    -2.4320 hn         1 11E       0.270800
@<TRIPOS>BOND
     1     1     2 1   
     2     2     3 1   
     3     2     4 1   
     4     4     5 1   
     5     4    18 1   
     6     4    19 1   
     7     5     6 1   
     8     5    20 1   
     9     6     7 2   
    10     6     8 1   
    11     8     9 ar  
    12     8    10 ar  
    13     9    14 ar  
    14     9    21 1   
    15    10    11 ar  
    16    10    22 1   
    17    11    12 1   
    18    11    13 ar  
    19    12    16 1   
    20    13    14 ar  
    21    13    15 1   
    22    14    23 1   
    23    15    16 2   
    24    16    17 1   
    25    17    24 1   
    26    17    25 1   
@<TRIPOS>SUBSTRUCTURE
     1 11E         1 TEMP              0 ****  ****    0 ROOT
