@<TRIPOS>MOLECULE
molecule
   49    51     1     0     0
SMALL
bcc


@<TRIPOS>ATOM
      1 C1K          0.0000     0.0000     0.0000 ca         1 11F      -0.114000
      2 C1I          1.3810     0.0000     0.0000 ca         1 11F      -0.135500
      3 C1H          2.0740     0.0000     1.1960 ca         1 11F      -0.132000
      4 C1J          1.3900     0.0010     2.3990 ca         1 11F      -0.135500
      5 C1L          0.0090     0.0010     2.4100 ca         1 11F      -0.114000
      6 C1V         -0.6940     0.0070     1.2070 cp         1 11F      -0.018000
      7 C1Z         -2.1780     0.0070     1.2140 cp         1 11F      -0.058000
      8 C1Y         -2.8770    -0.9140     1.9980 ca         1 11F       0.144100
      9 C1O         -4.2630    -0.9060     1.9980 ca         1 11F      -0.218000
     10 O1R         -2.2020    -1.8140     2.7580 os         1 11F      -0.353900
     11 C1A         -2.9830    -2.7250     3.5340 c3         1 11F       0.109700
     12 C1N         -2.8800     0.9310     0.4420 ca         1 11F      -0.072000
     13 C1M         -4.2600     0.9270     0.4510 ca         1 11F      -0.160000
     14 C1W         -4.9500     0.0100     1.2240 ca         1 11F      -0.055300
     15 C2A         -6.4570     0.0150     1.2280 c3         1 11F       0.079700
     16 C1C         -6.9700    -0.2420    -0.1910 c3         1 11F      -0.095100
     17 C1G         -6.9430     1.3220     1.6970 c1         1 11F      -0.131100
     18 C1F         -7.3490     2.3560     2.0750 cg         1 11F      -0.134000
     19 C5          -7.4880     3.9180     1.9870 ca         1 11F      -0.260600
     20 C6          -7.0860     4.3990     3.2920 ca         1 11F       0.522600
     21 C1B         -6.6110     3.5200     4.2780 c3         1 11F      -0.175400
     22 N1          -7.1420     5.9560     3.4510 nb         1 11F      -0.781000
     23 C2          -7.6120     6.4760     2.1530 ca         1 11F       0.954900
     24 N1D         -7.4930     7.8680     2.0300 nv         1 11F      -1.037500
     25 N3          -8.2880     5.9870     1.4790 nb         1 11F      -0.832000
     26 C4          -7.8300     4.4980     1.0850 ca         1 11F       0.783200
     27 N1E         -7.5790     4.4800    -0.3130 nv         1 11F      -0.966500
     28 H1K         -0.5220    -0.1710    -0.9340 ha         1 11F       0.137000
     29 H1I          2.0070    -0.1760    -0.8660 ha         1 11F       0.130000
     30 H1H          3.1280    -0.0740     1.4330 ha         1 11F       0.132000
     31 H1J          1.8180     0.0560     3.3930 ha         1 11F       0.130000
     32 H1L         -0.4070    -0.3610     3.3430 ha         1 11F       0.137000
     33 H1O         -4.7820    -1.6630     2.5730 ha         1 11F       0.134000
     34 H1A         -3.6870    -2.0500     4.0050 h1         1 11F       0.061700
     35 H1AA        -3.3610    -3.3510     2.7350 h1         1 11F       0.061700
     36 H1AB        -2.1700    -3.3840     3.8160 h1         1 11F       0.061700
     37 H1N         -2.4860     1.3090    -0.4940 ha         1 11F       0.143000
     38 H1M         -4.9440     1.5490    -0.1140 ha         1 11F       0.139000
     39 H2A         -6.8190    -0.7630     1.8890 hc         1 11F       0.069700
     40 H1C         -6.6120    -1.2090    -0.5220 hc         1 11F       0.039700
     41 H1CA        -8.0110    -0.5440    -0.1820 hc         1 11F       0.039700
     42 H1CB        -6.6600     0.3620    -1.0350 hc         1 11F       0.039700
     43 H1B         -5.5500     3.5860     4.0690 hc         1 11F       0.086367
     44 H1BA        -6.7330     4.1640     5.1400 hc         1 11F       0.086367
     45 H1BB        -6.8630     2.4670     4.2830 hc         1 11F       0.086367
     46 HN1D        -6.9920     8.1760     2.8400 hn         1 11F       0.411800
     47 HN1A        -7.9610     8.6560     1.6270 hn         1 11F       0.411800
     48 HN1E        -7.7380     4.9760    -1.1670 hn         1 11F       0.421800
     49 HN1B        -7.4710     3.5080    -0.5270 hn         1 11F       0.421800
@<TRIPOS>BOND
     1     6     1 ar  
     2     1     2 ar  
     3     1    28 1   
     4     2     3 ar  
     5     2    29 1   
     6     4     3 ar  
     7     3    30 1   
     8     5     4 ar  
     9     4    31 1   
    10     6     5 ar  
    11     5    32 1   
    12     7     6 1   
    13     8     7 ar  
    14    12     7 ar  
    15     9     8 ar  
    16     8    10 1   
    17    14     9 ar  
    18     9    33 1   
    19    11    10 1   
    20    11    34 1   
    21    11    35 1   
    22    11    36 1   
    23    13    12 ar  
    24    12    37 1   
    25    14    13 ar  
    26    13    38 1   
    27    15    14 1   
    28    17    15 1   
    29    15    16 1   
    30    15    39 1   
    31    16    40 1   
    32    16    41 1   
    33    16    42 1   
    34    18    17 3   
    35    19    18 1   
    36    26    19 ar  
    37    19    20 ar  
    38    22    20 ar  
    39    20    21 1   
    40    21    43 1   
    41    21    44 1   
    42    21    45 1   
    43    23    22 ar  
    44    25    23 ar  
    45    24    23 1   
    46    24    46 1   
    47    24    47 1   
    48    25    26 ar  
    49    27    26 1   
    50    27    48 1   
    51    27    49 1   
@<TRIPOS>SUBSTRUCTURE
     1 11F         1 TEMP              0 ****  ****    0 ROOT
