@<TRIPOS>MOLECULE
11F
   49    51     1     0     0
SMALL
bcc


@<TRIPOS>ATOM
      1 C1K          0.1450     0.3850     0.2300 ca         1 11F      -0.111500
      2 C1I          1.4580    -0.0790     0.2000 ca         1 11F      -0.135000
      3 C1H          1.8200    -1.2130     0.9280 ca         1 11F      -0.127000
      4 C1J          0.8620    -1.8810     1.6900 ca         1 11F      -0.135000
      5 C1L         -0.4530    -1.4230     1.7210 ca         1 11F      -0.111500
      6 C1V         -0.8250    -0.2850     0.9890 cp         1 11F      -0.029000
      7 C1Z         -2.2140     0.1700     1.0110 cp         1 11F      -0.058000
      8 C1Y         -2.5680     1.5350     1.1220 ca         1 11F       0.135100
      9 C1O         -3.9120     1.9290     1.1510 ca         1 11F      -0.199000
     10 O1R         -1.5210     2.4360     1.1780 os         1 11F      -0.324900
     11 C1A         -1.8510     3.7650     1.5660 c3         1 11F       0.111700
     12 C1N         -3.2490    -0.7690     0.9210 ca         1 11F      -0.096000
     13 C1M         -4.5860    -0.3810     0.9450 ca         1 11F      -0.155000
     14 C1W         -4.9240     0.9700     1.0630 ca         1 11F      -0.042300
     15 C2A         -6.3640     1.3990     1.1060 c3         1 11F       0.069700
     16 C1C         -7.0330     0.8880     2.3760 c3         1 11F      -0.085100
     17 C1G         -7.0750     0.9630    -0.0670 c1         1 11F      -0.154100
     18 C1F         -7.6720     0.6210    -1.0500 cg         1 11F      -0.081000
     19 C5          -8.3510     0.2190    -2.2020 ca         1 11F      -0.343600
     20 C6          -9.7440     0.4300    -2.3650 ca         1 11F       0.537600
     21 C1B        -10.5010     1.0760    -1.2460 c3         1 11F      -0.157400
     22 N1         -10.4130     0.0660    -3.4750 nb         1 11F      -0.791000
     23 C2          -9.6620    -0.5240    -4.4890 ca         1 11F       0.915900
     24 N1D        -10.3180    -0.8030    -5.6890 nv         1 11F      -0.932500
     25 N3          -8.3110    -0.8060    -4.4300 nb         1 11F      -0.832000
     26 C4          -7.6580    -0.4400    -3.2830 ca         1 11F       0.746200
     27 N1E         -6.3220    -0.7570    -3.1530 nv         1 11F      -0.954500
     28 H1K         -0.1360     1.2880    -0.3340 ha         1 11F       0.138500
     29 H1I          2.2110     0.4530    -0.4000 ha         1 11F       0.130000
     30 H1H          2.8570    -1.5770     0.9030 ha         1 11F       0.130000
     31 H1J          1.1450    -2.7720     2.2700 ha         1 11F       0.130000
     32 H1L         -1.2030    -1.9500     2.3290 ha         1 11F       0.138500
     33 H1O         -4.1790     2.9920     1.2380 ha         1 11F       0.139000
     34 H1A         -0.8510     4.2550     1.6830 h1         1 11F       0.045033
     35 H1AA        -2.4100     3.7740     2.5320 h1         1 11F       0.045033
     36 H1AB        -2.4430     4.2690     0.7640 h1         1 11F       0.045033
     37 H1N         -2.9950    -1.8360     0.8250 ha         1 11F       0.140000
     38 H1M         -5.3810    -1.1380     0.8690 ha         1 11F       0.142000
     39 H2A         -6.4030     2.5330     1.1270 hc         1 11F       0.065700
     40 H1C         -7.0100    -0.2270     2.4100 hc         1 11F       0.043367
     41 H1CA        -6.4970     1.2850     3.2710 hc         1 11F       0.043367
     42 H1CB        -8.0960     1.2260     2.4120 hc         1 11F       0.043367
     43 H1B         -9.9500     1.9880    -0.9080 hc         1 11F       0.060700
     44 H1BA       -10.5640     0.3580    -0.3910 hc         1 11F       0.060700
     45 H1BB       -11.5360     1.3690    -1.5460 hc         1 11F       0.060700
     46 HN1D       -11.3100    -0.8270    -5.6650 hn         1 11F       0.430300
     47 HN1A        -9.8690    -1.4260    -6.3180 hn         1 11F       0.430300
     48 HN1E        -5.8130    -1.0710    -3.9430 hn         1 11F       0.438300
     49 HN1B        -5.8210    -0.3280    -2.4120 hn         1 11F       0.438300
@<TRIPOS>BOND
     1     1     2 ar  
     2     1     6 ar  
     3     1    28 1   
     4     2     3 ar  
     5     2    29 1   
     6     3     4 ar  
     7     3    30 1   
     8     4     5 ar  
     9     4    31 1   
    10     5     6 ar  
    11     5    32 1   
    12     6     7 1   
    13     7     8 ar  
    14     7    12 ar  
    15     8     9 ar  
    16     8    10 1   
    17     9    14 ar  
    18     9    33 1   
    19    10    11 1   
    20    11    34 1   
    21    11    35 1   
    22    11    36 1   
    23    12    13 ar  
    24    12    37 1   
    25    13    14 ar  
    26    13    38 1   
    27    14    15 1   
    28    15    16 1   
    29    15    17 1   
    30    15    39 1   
    31    16    40 1   
    32    16    41 1   
    33    16    42 1   
    34    17    18 3   
    35    18    19 1   
    36    19    20 ar  
    37    19    26 ar  
    38    20    21 1   
    39    20    22 ar  
    40    21    43 1   
    41    21    44 1   
    42    21    45 1   
    43    22    23 ar  
    44    23    24 1   
    45    23    25 ar  
    46    24    46 1   
    47    24    47 1   
    48    25    26 ar  
    49    26    27 1   
    50    27    48 1   
    51    27    49 1   
@<TRIPOS>SUBSTRUCTURE
     1 11F         1 TEMP              0 ****  ****    0 ROOT
