@<TRIPOS>MOLECULE
molecule
   39    41     1     0     0
SMALL
bcc


@<TRIPOS>ATOM
      1 O18          0.0000     0.0000     0.0000 o          1 11G      -0.614500
      2 C8           1.2130     0.0000     0.0000 c          1 11G       0.711500
      3 N7           1.8960     0.0000     1.1660 n          1 11G      -0.368000
      4 C19          1.1910     0.1280     2.4450 c3         1 11G       0.090300
      5 C2           3.2890    -0.1260     1.1260 ca         1 11G      -0.209000
      6 C9           1.9740    -0.0060    -1.3010 c3         1 11G       0.106500
      7 C16          2.3710     1.4260    -1.6640 c3         1 11G      -0.120400
      8 C17          1.1100     2.2680    -1.8690 c3         1 11G      -0.093100
      9 N10          3.1810    -0.8290    -1.1800 nh         1 11G      -0.680300
     10 C11          4.0020    -0.7420    -2.3950 c3         1 11G       0.181500
     11 C15          3.1310    -1.0000    -3.6410 c3         1 11G      -0.075400
     12 C14          4.0550    -1.8000    -4.5920 c3         1 11G      -0.085900
     13 C13          4.8320    -2.7210    -3.6180 c3         1 11G      -0.085900
     14 C12          5.0840    -1.8360    -2.3800 c3         1 11G      -0.075400
     15 C3           3.9230    -0.5110    -0.0590 ca         1 11G       0.623200
     16 N4           5.2490    -0.5960    -0.0760 nb         1 11G      -0.757000
     17 C5           5.9500    -0.3390     1.0110 ca         1 11G       0.674900
     18 N6           5.3820     0.0100     2.1470 nb         1 11G      -0.736000
     19 C1           4.0620     0.1280     2.2450 ca         1 11G       0.434200
     20 H1           1.4170     1.0910     2.8870 h1         1 11G       0.054700
     21 H2           1.5110    -0.6610     3.1140 h1         1 11G       0.054700
     22 H3           0.1230     0.0500     2.2780 h1         1 11G       0.054700
     23 H4           1.3420    -0.4150    -2.0810 h1         1 11G       0.112700
     24 H5           2.9620     1.8510    -0.8620 hc         1 11G       0.057200
     25 H6           2.9530     1.4200    -2.5770 hc         1 11G       0.057200
     26 H7           0.3480     1.6670    -2.3490 hc         1 11G       0.043367
     27 H8           1.3440     3.1220    -2.4930 hc         1 11G       0.043367
     28 H9           0.7460     2.6120    -0.9080 hc         1 11G       0.043367
     29 H10          4.4660     0.2350    -2.4660 h1         1 11G       0.048700
     30 H11          2.8390    -0.0630    -4.0990 hc         1 11G       0.056450
     31 H12          2.2600    -1.5880    -3.3780 hc         1 11G       0.056450
     32 H13          4.7330    -1.1370    -5.1140 hc         1 11G       0.046700
     33 H14          3.4690    -2.3890    -5.2880 hc         1 11G       0.046700
     34 H15          4.2300    -3.5810    -3.3500 hc         1 11G       0.046700
     35 H16          5.7720    -3.0290    -4.0590 hc         1 11G       0.046700
     36 H17          4.9980    -2.4290    -1.4780 hc         1 11G       0.056450
     37 H18          6.0670    -1.3840    -2.4420 hc         1 11G       0.056450
     38 H19          7.0290    -0.4250     0.9710 h5         1 11G       0.062100
     39 H20          3.6010     0.4150     3.1820 h4         1 11G       0.036100
@<TRIPOS>BOND
     1     8     7 1   
     2     7     6 1   
     3     4     3 1   
     4    11    12 1   
     5    11    10 1   
     6    19    18 ar  
     7    19     5 ar  
     8    18    17 ar  
     9     3     5 1   
    10     3     2 1   
    11     5    15 ar  
    12    17    16 ar  
    13     1     2 2   
    14     2     6 1   
    15    15    16 ar  
    16    15     9 1   
    17    12    13 1   
    18     6     9 1   
    19     9    10 1   
    20    10    14 1   
    21    13    14 1   
    22     4    20 1   
    23     4    21 1   
    24     4    22 1   
    25     6    23 1   
    26     7    24 1   
    27     7    25 1   
    28     8    26 1   
    29     8    27 1   
    30     8    28 1   
    31    10    29 1   
    32    11    30 1   
    33    11    31 1   
    34    12    32 1   
    35    12    33 1   
    36    13    34 1   
    37    13    35 1   
    38    14    36 1   
    39    14    37 1   
    40    17    38 1   
    41    19    39 1   
@<TRIPOS>SUBSTRUCTURE
     1 11G         1 TEMP              0 ****  ****    0 ROOT
