@<TRIPOS>MOLECULE
11G
   39    41     1     0     0
SMALL
bcc


@<TRIPOS>ATOM
      1 O18         -0.0370    -0.0700    -0.0020 o          1 11G      -0.623500
      2 C8           1.2030     0.0350    -0.0050 c          1 11G       0.700500
      3 N7           1.9350    -0.0460     1.1740 n          1 11G      -0.354000
      4 C19          1.2770    -0.2440     2.4390 c3         1 11G       0.072300
      5 C2           3.3310     0.0840     1.1390 ca         1 11G      -0.205000
      6 C9           1.9420     0.2650    -1.3360 c3         1 11G       0.157500
      7 C16          1.6310     1.6990    -1.7960 c3         1 11G      -0.106400
      8 C17          2.2100     2.7740    -0.9180 c3         1 11G      -0.101100
      9 N10          3.3350    -0.1360    -1.3150 nh         1 11G      -0.752300
     10 C11          4.0700    -0.2220    -2.5690 c3         1 11G       0.225500
     11 C15          4.7580     1.0670    -3.0740 c3         1 11G      -0.096900
     12 C14          4.8550     0.9380    -4.5880 c3         1 11G      -0.080900
     13 C13          4.0840    -0.3120    -4.9940 c3         1 11G      -0.080900
     14 C12          3.2610    -0.7290    -3.7840 c3         1 11G      -0.096900
     15 C3           4.0510     0.0860    -0.1260 ca         1 11G       0.654200
     16 N4           5.4130     0.2160    -0.1330 nb         1 11G      -0.734000
     17 C5           6.0290     0.3180     1.0700 ca         1 11G       0.634900
     18 N6           5.4520     0.3240     2.2950 nb         1 11G      -0.698000
     19 C1           4.1090     0.2110     2.3150 ca         1 11G       0.404200
     20 H1           0.1860    -0.4500     2.2660 h1         1 11G       0.056033
     21 H2           1.3790     0.6760     3.0760 h1         1 11G       0.056033
     22 H3           1.7370    -1.1150     2.9770 h1         1 11G       0.056033
     23 H4           1.4250    -0.4410    -2.0620 h1         1 11G       0.096700
     24 H5           2.0040     1.8250    -2.8470 hc         1 11G       0.063700
     25 H6           0.5110     1.7970    -1.8210 hc         1 11G       0.063700
     26 H7           3.3220     2.6930    -0.8570 hc         1 11G       0.042033
     27 H8           1.9550     3.7800    -1.3330 hc         1 11G       0.042033
     28 H9           1.7950     2.7070     0.1170 hc         1 11G       0.042033
     29 H10          4.8850    -0.9890    -2.3840 h1         1 11G       0.077700
     30 H11          4.1700     1.9770    -2.7950 hc         1 11G       0.053700
     31 H12          5.7730     1.1690    -2.6170 hc         1 11G       0.053700
     32 H13          5.9230     0.8610    -4.9110 hc         1 11G       0.045200
     33 H14          4.4240     1.8440    -5.0840 hc         1 11G       0.045200
     34 H15          4.7920    -1.1290    -5.2820 hc         1 11G       0.045200
     35 H16          3.4240    -0.1140    -5.8740 hc         1 11G       0.045200
     36 H17          3.1220    -1.8350    -3.7330 hc         1 11G       0.053700
     37 H18          2.2520    -0.2510    -3.8480 hc         1 11G       0.053700
     38 H19          7.1350     0.4120     1.0360 h5         1 11G       0.055100
     39 H20          3.6440     0.2180     3.3170 h4         1 11G       0.032100
@<TRIPOS>BOND
     1     1     2 2   
     2     2     3 1   
     3     2     6 1   
     4     3     4 1   
     5     3     5 1   
     6     4    20 1   
     7     4    21 1   
     8     4    22 1   
     9     5    15 ar  
    10     5    19 ar  
    11     6     7 1   
    12     6     9 1   
    13     6    23 1   
    14     7     8 1   
    15     7    24 1   
    16     7    25 1   
    17     8    26 1   
    18     8    27 1   
    19     8    28 1   
    20     9    10 1   
    21     9    15 1   
    22    10    11 1   
    23    10    14 1   
    24    10    29 1   
    25    11    12 1   
    26    11    30 1   
    27    11    31 1   
    28    12    13 1   
    29    12    32 1   
    30    12    33 1   
    31    13    14 1   
    32    13    34 1   
    33    13    35 1   
    34    14    36 1   
    35    14    37 1   
    36    15    16 ar  
    37    16    17 ar  
    38    17    18 ar  
    39    17    38 1   
    40    18    19 ar  
    41    19    39 1   
@<TRIPOS>SUBSTRUCTURE
     1 11G         1 TEMP              0 ****  ****    0 ROOT
