@<TRIPOS>MOLECULE
11H
   30    32     1     0     0
SMALL
bcc


@<TRIPOS>ATOM
      1 O01         0.1040   -0.2860   -0.3350 o         1 11H     -0.744867
      2 S02         1.5110   -0.2090   -0.1870 s6        1 11H      1.457100
      3 O03         1.9390   -0.0730    1.1520 o         1 11H     -0.744867
      4 O04         2.2010   -1.2120   -0.9030 o         1 11H     -0.744867
      5 C05         1.9580    1.3210   -0.9790 ca        1 11H     -0.251500
      6 C06         1.0990    1.8950   -1.9120 ca        1 11H     -0.043000
      7 C07         1.4320    3.0860   -2.5600 ca        1 11H     -0.130000
      8 C08         2.6410    3.7280   -2.2780 ca        1 11H     -0.114600
      9 C09         2.9660    4.9880   -2.9820 c         1 11H      0.588300
     10 O10         2.2080    5.4480   -3.8530 o         1 11H     -0.558100
     11 C11         4.2200    5.6690   -2.6070 ca        1 11H     -0.166600
     12 C12         5.0940    5.1050   -1.6610 ca        1 11H     -0.114600
     13 C13         6.2710    5.7820   -1.3290 ca        1 11H     -0.130000
     14 C14         6.5760    7.0030   -1.9330 ca        1 11H     -0.043000
     15 C15         5.7230    7.5690   -2.8760 ca        1 11H     -0.251500
     16 C16         4.5450    6.8950   -3.2020 ca        1 11H      0.001000
     17 S17         6.1530    9.1180   -3.6410 s6        1 11H      1.457100
     18 O18         7.0870    9.7050   -2.7520 o         1 11H     -0.744867
     19 O19         6.7170    8.7700   -4.8890 o         1 11H     -0.744867
     20 O20         4.9380    9.8300   -3.7470 o         1 11H     -0.744867
     21 C21         4.7990    3.8110   -1.0050 c         1 11H      0.588300
     22 O22         5.6050    3.3000   -0.2100 o         1 11H     -0.558100
     23 C23         3.5160    3.1630   -1.3330 ca        1 11H     -0.166600
     24 C24         3.1620    1.9670   -0.6940 ca        1 11H      0.001000
     25 H1          0.1360    1.3980   -2.1270 ha        1 11H      0.151000
     26 H2          0.7490    3.5330   -3.2990 ha        1 11H      0.138000
     27 H3          6.9510    5.3370   -0.5860 ha        1 11H      0.138000
     28 H4          7.5000    7.5410   -1.6570 ha        1 11H      0.151000
     29 H5          3.8480    7.3400   -3.9350 ha        1 11H      0.162000
     30 H6          3.8480    1.5340    0.0570 ha        1 11H      0.162000
@<TRIPOS>BOND
     1    1    2 1   
     2    2    3 1   
     3    2    4 1   
     4    2    5 1   
     5    5    6 ar  
     6    5   24 ar  
     7    6    7 ar  
     8    6   25 1   
     9    7    8 ar  
    10    7   26 1   
    11    8    9 1   
    12    8   23 ar  
    13    9   10 2   
    14    9   11 1   
    15   11   12 ar  
    16   11   16 ar  
    17   12   13 ar  
    18   12   21 1   
    19   13   14 ar  
    20   13   27 1   
    21   14   15 ar  
    22   14   28 1   
    23   15   16 ar  
    24   15   17 1   
    25   16   29 1   
    26   17   18 1   
    27   17   19 1   
    28   17   20 1   
    29   21   22 2   
    30   21   23 1   
    31   23   24 ar  
    32   24   30 1   
@<TRIPOS>SUBSTRUCTURE
     1 11H         1 TEMP              0 ****  ****    0 ROOT
