@<TRIPOS>MOLECULE
molecule
   30    32     1     0     0
SMALL
bcc


@<TRIPOS>ATOM
      1 O01          0.0000     0.0000     0.0000 o          1 11H      -0.711200
      2 S02          1.4210     0.0000     0.0000 s6         1 11H       1.324600
      3 O03          2.1980     0.0000     1.1900 o          1 11H      -0.711200
      4 O04          1.8500    -1.2270    -0.7930 o          1 11H      -0.711200
      5 C05          1.9190     1.4170    -0.9190 ca         1 11H      -0.256500
      6 C06          1.0580     1.9690    -1.8500 ca         1 11H      -0.034000
      7 C07          1.4350     3.0840    -2.5810 ca         1 11H      -0.126000
      8 C08          2.6880     3.6520    -2.3780 ca         1 11H      -0.115100
      9 C09          3.1080     4.8430    -3.1490 c          1 11H       0.589800
     10 O10          2.4830     5.1920    -4.1300 o          1 11H      -0.539600
     11 C11          4.2990     5.6030    -2.7090 ca         1 11H      -0.170600
     12 C12          5.1760     5.0410    -1.7630 ca         1 11H      -0.115100
     13 C13          6.2940     5.7560    -1.3490 ca         1 11H      -0.126000
     14 C14          6.5380     7.0160    -1.8700 ca         1 11H      -0.034000
     15 C15          5.6760     7.5690    -2.7990 ca         1 11H      -0.256500
     16 C16          4.5580     6.8690    -3.2230 ca         1 11H       0.006000
     17 S17          6.0040     9.1720    -3.4490 s6         1 11H       1.324600
     18 O18          6.8160     9.8360    -2.4900 o          1 11H      -0.711200
     19 O19          6.8660     8.9890    -4.6900 o          1 11H      -0.711200
     20 O20          4.7580     9.6850    -3.8990 o          1 11H      -0.711200
     21 C21          4.8970     3.6940    -1.2180 c          1 11H       0.589800
     22 O22          5.7540     3.0920    -0.6010 o          1 11H      -0.539600
     23 C23          3.5650     3.0890    -1.4320 ca         1 11H      -0.170600
     24 C24          3.1690     1.9730    -0.7030 ca         1 11H       0.006000
     25 H1           0.0820     1.5270    -2.0080 ha         1 11H       0.149000
     26 H2           0.7560     3.5110    -3.3080 ha         1 11H       0.135000
     27 H3           6.9720     5.3290    -0.6210 ha         1 11H       0.135000
     28 H4           7.4090     7.5720    -1.5460 ha         1 11H       0.149000
     29 H5           3.8870     7.3080    -3.9520 ha         1 11H       0.170000
     30 H6           3.8640     1.4940    -0.0240 ha         1 11H       0.170000
@<TRIPOS>BOND
     1    20    17 1   
     2    18    17 1   
     3    14    13 ar  
     4    14    15 ar  
     5    17    15 1   
     6    17    19 1   
     7    13    12 ar  
     8    15    16 ar  
     9    22    21 2   
    10    12    21 1   
    11    12    11 ar  
    12    16    11 ar  
    13    21    23 1   
    14    11     9 1   
    15    23    24 ar  
    16    23     8 ar  
    17     9     8 1   
    18     9    10 2   
    19    24     5 ar  
    20     8     7 ar  
    21     3     2 1   
    22     5     2 1   
    23     5     6 ar  
    24     7     6 ar  
    25     2     1 1   
    26     2     4 1   
    27     6    25 1   
    28     7    26 1   
    29    13    27 1   
    30    14    28 1   
    31    16    29 1   
    32    24    30 1   
@<TRIPOS>SUBSTRUCTURE
     1 11H         1 TEMP              0 ****  ****    0 ROOT
