@<TRIPOS>MOLECULE
11H
   30    32     1     0     0
SMALL
bcc


@<TRIPOS>ATOM
      1 O01          0.0810     0.1220     0.0670 o          1 11H      -0.744867
      2 S02          1.4900     0.0420     0.0010 s6         1 11H       1.457100
      3 O03          2.1100    -0.0840     1.2640 o          1 11H      -0.744867
      4 O04          2.0680     1.0380    -0.8240 o          1 11H      -0.744867
      5 C05          1.8310    -1.4880    -0.8420 ca         1 11H      -0.251500
      6 C06          2.1350    -1.4770    -2.2010 ca         1 11H      -0.043000
      7 C07          2.3920    -2.6630    -2.8900 ca         1 11H      -0.130000
      8 C08          2.3490    -3.8910    -2.2230 ca         1 11H      -0.114600
      9 C09          2.6250    -5.1310    -2.9820 c          1 11H       0.588300
     10 O10          2.8930    -5.0920    -4.1940 o          1 11H      -0.558100
     11 C11          2.5710    -6.4050    -2.2400 ca         1 11H      -0.166600
     12 C12          2.2710    -6.4310    -0.8670 ca         1 11H      -0.114600
     13 C13          2.2280    -7.6580    -0.2000 ca         1 11H      -0.130000
     14 C14          2.4830    -8.8450    -0.8890 ca         1 11H      -0.043000
     15 C15          2.7870    -8.8330    -2.2480 ca         1 11H      -0.251500
     16 C16          2.8220    -7.6080    -2.9140 ca         1 11H       0.002000
     17 S17          3.1270   -10.3640    -3.0910 s6         1 11H       1.457100
     18 O18          4.5360   -10.4460    -3.1550 o          1 11H      -0.744867
     19 O19          2.5100   -10.2360    -4.3560 o          1 11H      -0.744867
     20 O20          2.5460   -11.3590    -2.2670 o          1 11H      -0.744867
     21 C21          1.9960    -5.1900    -0.1080 c          1 11H       0.588300
     22 O22          1.7290    -5.2300     1.1050 o          1 11H      -0.558100
     23 C23          2.0490    -3.9170    -0.8490 ca         1 11H      -0.166600
     24 C24          1.7970    -2.7140    -0.1760 ca         1 11H       0.002000
     25 H1           2.1820    -0.5080    -2.7290 ha         1 11H       0.151000
     26 H2           2.6310    -2.6480    -3.9650 ha         1 11H       0.138000
     27 H3           1.9880    -7.6740     0.8750 ha         1 11H       0.138000
     28 H4           2.4360    -9.8130    -0.3610 ha         1 11H       0.151000
     29 H5           3.0430    -7.5820    -3.9970 ha         1 11H       0.162000
     30 H6           1.5770    -2.7390     0.9070 ha         1 11H       0.162000
@<TRIPOS>BOND
     1     1     2 1   
     2     2     3 1   
     3     2     4 1   
     4     2     5 1   
     5     5     6 ar  
     6     5    24 ar  
     7     6     7 ar  
     8     6    25 1   
     9     7     8 ar  
    10     7    26 1   
    11     8     9 1   
    12     8    23 ar  
    13     9    10 2   
    14     9    11 1   
    15    11    12 ar  
    16    11    16 ar  
    17    12    13 ar  
    18    12    21 1   
    19    13    14 ar  
    20    13    27 1   
    21    14    15 ar  
    22    14    28 1   
    23    15    16 ar  
    24    15    17 1   
    25    16    29 1   
    26    17    18 1   
    27    17    19 1   
    28    17    20 1   
    29    21    22 2   
    30    21    23 1   
    31    23    24 ar  
    32    24    30 1   
@<TRIPOS>SUBSTRUCTURE
     1 11H         1 TEMP              0 ****  ****    0 ROOT
