@<TRIPOS>MOLECULE
11J
   36    38     1     0     0
SMALL
bcc


@<TRIPOS>ATOM
      1 I            0.5490    -1.3960     1.1770 i          1 11J      -0.122900
      2 N            3.1010    -0.4880     3.6290 ns         1 11J      -0.462100
      3 O            2.3860     1.6250     2.9820 o          1 11J      -0.564100
      4 C1           2.2970    -0.6470     0.4860 ca         1 11J       0.045900
      5 C2           3.1470     0.1320     1.2760 ca         1 11J      -0.111600
      6 C3           4.3370     0.6400     0.7420 ca         1 11J      -0.097000
      7 C4           4.6820     0.3660    -0.5800 ca         1 11J      -0.115000
      8 C5           3.8380    -0.4130    -1.3700 ca         1 11J      -0.117000
      9 C6           2.6500    -0.9140    -0.8390 ca         1 11J      -0.103000
     10 C7           2.8200     0.4970     2.6950 c          1 11J       0.676700
     11 C8           2.8670    -0.4380     5.0150 ca         1 11J       0.067600
     12 C9           3.0530    -1.6250     5.7640 ca         1 11J      -0.172000
     13 C10          2.8620    -1.6310     7.1480 cp         1 11J      -0.012000
     14 C11          2.4790    -0.4530     7.8030 ca         1 11J      -0.145000
     15 C12          2.2890     0.7140     7.0690 ca         1 11J      -0.106000
     16 C13          2.4790     0.7380     5.6900 ca         1 11J      -0.151000
     17 C14          3.0620    -2.8660     7.9080 cp         1 11J      -0.039000
     18 C15          3.7220    -2.8370     9.1450 ca         1 11J      -0.118000
     19 C16          3.9130    -4.0130     9.8670 ca         1 11J      -0.131000
     20 C17          3.4440    -5.2270     9.3670 ca         1 11J      -0.127000
     21 C18          2.7840    -5.2630     8.1390 ca         1 11J      -0.131000
     22 C19          2.5940    -4.0910     7.4110 ca         1 11J      -0.118000
     23 HN           3.4040    -1.3710     3.2780 hn         1 11J       0.321500
     24 H3           4.9910     1.2660     1.3690 ha         1 11J       0.151000
     25 H4           5.6170     0.7680    -0.9980 ha         1 11J       0.143000
     26 H5           4.1040    -0.6310    -2.4160 ha         1 11J       0.142000
     27 H6           1.9880    -1.5230    -1.4760 ha         1 11J       0.150000
     28 H9           3.3590    -2.5580     5.2660 ha         1 11J       0.134000
     29 H11          2.3220    -0.4570     8.8910 ha         1 11J       0.137000
     30 H12          1.9830     1.6380     7.5830 ha         1 11J       0.136000
     31 H13          2.3180     1.6790     5.1390 ha         1 11J       0.173000
     32 H15          4.0960    -1.8800     9.5400 ha         1 11J       0.135000
     33 H16          4.4340    -3.9810    10.8350 ha         1 11J       0.132000
     34 H17          3.5940    -6.1540     9.9400 ha         1 11J       0.132000
     35 H18          2.4100    -6.2190     7.7440 ha         1 11J       0.132000
     36 H19          2.0670    -4.1220     6.4460 ha         1 11J       0.135000
@<TRIPOS>BOND
     1     1     4 1   
     2     2    10 1   
     3     2    11 1   
     4     2    23 1   
     5     3    10 2   
     6     4     5 ar  
     7     4     9 ar  
     8     5     6 ar  
     9     5    10 1   
    10     6     7 ar  
    11     6    24 1   
    12     7     8 ar  
    13     7    25 1   
    14     8     9 ar  
    15     8    26 1   
    16     9    27 1   
    17    11    12 ar  
    18    11    16 ar  
    19    12    13 ar  
    20    12    28 1   
    21    13    14 ar  
    22    13    17 1   
    23    14    15 ar  
    24    14    29 1   
    25    15    16 ar  
    26    15    30 1   
    27    16    31 1   
    28    17    18 ar  
    29    17    22 ar  
    30    18    19 ar  
    31    18    32 1   
    32    19    20 ar  
    33    19    33 1   
    34    20    21 ar  
    35    20    34 1   
    36    21    22 ar  
    37    21    35 1   
    38    22    36 1   
@<TRIPOS>SUBSTRUCTURE
     1 11J         1 TEMP              0 ****  ****    0 ROOT
