@<TRIPOS>MOLECULE
11J
   36    38     1     0     0
SMALL
bcc


@<TRIPOS>ATOM
      1 I            0.0000     0.0000     0.0000 i          1 11J      -0.208900
      2 N            2.7390     0.0010     3.6560 ns         1 11J      -0.040100
      3 O            0.8450     0.0020     2.4960 o          1 11J      -0.609100
      4 C1           2.0950     0.0000     0.0000 ca         1 11J       0.229900
      5 C2           2.7950     0.0000     1.2090 ca         1 11J      -0.144600
      6 C3           4.1910    -0.0000     1.2000 ca         1 11J      -0.080000
      7 C4           4.8700    -0.0010    -0.0010 ca         1 11J      -0.108000
      8 C5           4.1710    -0.0010    -1.1950 ca         1 11J      -0.072000
      9 C6           2.7870    -0.0060    -1.1940 ca         1 11J      -0.095000
     10 C7           2.0610     0.0010     2.4910 c          1 11J       0.576700
     11 C8           2.0490     0.1150     4.8670 ca         1 11J      -0.081400
     12 C9           2.5230    -0.5320     5.9980 ca         1 11J      -0.136000
     13 C10          1.8340    -0.4170     7.2030 cp         1 11J      -0.012000
     14 C11          0.6700     0.3480     7.2640 ca         1 11J      -0.115000
     15 C12          0.2040     0.9890     6.1330 ca         1 11J      -0.078000
     16 C13          0.8910     0.8790     4.9390 ca         1 11J      -0.103000
     17 C14          2.3350    -1.1060     8.4170 cp         1 11J      -0.029000
     18 C15          1.6450    -0.9910     9.6220 ca         1 11J      -0.100000
     19 C16          2.1160    -1.6350    10.7480 ca         1 11J      -0.097500
     20 C17          3.2700    -2.3930    10.6820 ca         1 11J      -0.102000
     21 C18          3.9600    -2.5110     9.4880 ca         1 11J      -0.097500
     22 C19          3.4950    -1.8760     8.3550 ca         1 11J      -0.100000
     23 HN           3.7350    -0.0990     3.6550 hn         1 11J       0.170500
     24 H3           4.7400    -0.0000     2.1340 ha         1 11J       0.104000
     25 H4           5.9530     0.0010    -0.0090 ha         1 11J       0.107000
     26 H5           4.7090    -0.0040    -2.1350 ha         1 11J       0.107000
     27 H6           2.2460    -0.0060    -2.1330 ha         1 11J       0.120000
     28 H9           3.4280    -1.1250     5.9450 ha         1 11J       0.113000
     29 H11          0.1300     0.4380     8.1990 ha         1 11J       0.112000
     30 H12         -0.7000     1.5840     6.1840 ha         1 11J       0.104000
     31 H13          0.5210     1.3840     4.0550 ha         1 11J       0.140000
     32 H15          0.7410    -0.3970     9.6750 ha         1 11J       0.110000
     33 H16          1.5800    -1.5450    11.6850 ha         1 11J       0.101500
     34 H17          3.6370    -2.8950    11.5690 ha         1 11J       0.102000
     35 H18          4.8630    -3.1080     9.4410 ha         1 11J       0.101500
     36 H19          4.0350    -1.9690     7.4210 ha         1 11J       0.110000
@<TRIPOS>BOND
     1     1     4 1   
     2     2    10 1   
     3     2    11 1   
     4     2    23 1   
     5     3    10 2   
     6     4     5 ar  
     7     4     9 ar  
     8     5     6 ar  
     9     5    10 1   
    10     6     7 ar  
    11     6    24 1   
    12     7     8 ar  
    13     7    25 1   
    14     8     9 ar  
    15     8    26 1   
    16     9    27 1   
    17    11    12 ar  
    18    11    16 ar  
    19    12    13 ar  
    20    12    28 1   
    21    13    14 ar  
    22    13    17 1   
    23    14    15 ar  
    24    14    29 1   
    25    15    16 ar  
    26    15    30 1   
    27    16    31 1   
    28    17    18 ar  
    29    17    22 ar  
    30    18    19 ar  
    31    18    32 1   
    32    19    20 ar  
    33    19    33 1   
    34    20    21 ar  
    35    20    34 1   
    36    21    22 ar  
    37    21    35 1   
    38    22    36 1   
@<TRIPOS>SUBSTRUCTURE
     1 11J         1 TEMP              0 ****  ****    0 ROOT
