@<TRIPOS>MOLECULE
11K
   52    55     1     0     0
SMALL
bcc


@<TRIPOS>ATOM
      1 N1          -0.1530    -1.5880     1.7910 na         1 11K      -0.012600
      2 N2           1.1580    -1.8090     1.7990 nc         1 11K      -0.563800
      3 N3           3.1360    -0.3840     2.0450 ns         1 11K      -0.526400
      4 N4           9.9500    -5.8160     5.2780 n3         1 11K      -0.723600
      5 OAA          3.1230     1.8510     2.6510 o          1 11K      -0.594100
      6 CAB          6.2500    -1.4940     2.2490 ca         1 11K      -0.090000
      7 CAC          6.0970    -0.4450     4.4200 ca         1 11K      -0.090000
      8 CAD          6.8300    -2.6240     2.8230 ca         1 11K      -0.179000
      9 CAE          6.6730    -1.5600     5.0120 ca         1 11K      -0.179000
     10 CAF          0.7270     0.4520     2.1220 cd         1 11K      -0.278300
     11 CAG         11.2160    -6.4290     7.2920 c3         1 11K      -0.096400
     12 CAH         11.1450    -4.9100     7.2220 c3         1 11K      -0.096400
     13 CAI          7.9650    -4.8550     4.1020 c3         1 11K       0.124400
     14 CAJ         -2.1790     1.5160     2.7650 cx         1 11K      -0.117400
     15 CAK         -2.6720     0.1950     3.2710 cx         1 11K      -0.117400
     16 CAL         10.4890    -6.9470     6.0400 c3         1 11K       0.152800
     17 CAM         10.4190    -4.5800     5.9080 c3         1 11K       0.152800
     18 CAN          8.5110    -5.8920     5.0910 c3         1 11K       0.163800
     19 CAO          5.2770     0.8070     2.4140 c3         1 11K      -0.104100
     20 OAS          7.6070    -3.7110     4.8910 os         1 11K      -0.335900
     21 CAT          3.7530     0.8060     2.4010 c          1 11K       0.670100
     22 CAU          5.8770    -0.4010     3.0350 ca         1 11K      -0.137300
     23 CAV          7.0410    -2.6560     4.2060 ca         1 11K       0.137100
     24 CAW          1.7540    -0.5720     1.9990 cd         1 11K       0.417200
     25 CAX         -0.4870    -0.2400     1.9830 cc         1 11K      -0.066600
     26 CAY         -1.8590     0.2570     1.9990 cx         1 11K      -0.078400
     27 HN3          3.7070    -1.1970     1.9580 hn         1 11K       0.332500
     28 HAB          6.0910    -1.4660     1.1590 ha         1 11K       0.138000
     29 HAC          5.8080     0.4150     5.0450 ha         1 11K       0.138000
     30 HAD          7.1170    -3.4700     2.1830 ha         1 11K       0.147000
     31 HAE          6.8470    -1.6030     6.0960 ha         1 11K       0.147000
     32 HAF          0.8900     1.5130     2.2870 ha         1 11K       0.195000
     33 HAG         12.2760    -6.7830     7.2990 hc         1 11K       0.046700
     34 HAGA        10.7230    -6.8120     8.2190 hc         1 11K       0.046700
     35 HAH         10.5830    -4.4940     8.0940 hc         1 11K       0.046700
     36 HAHA        12.1650    -4.4560     7.2270 hc         1 11K       0.046700
     37 HAI          7.0440    -5.2610     3.6050 h1         1 11K       0.051200
     38 HAIA         8.7190    -4.5580     3.3290 h1         1 11K       0.051200
     39 HAJ         -1.3650     2.0290     3.3080 hc         1 11K       0.077700
     40 HAJA        -2.8970     2.2290     2.3240 hc         1 11K       0.077700
     41 HAK         -3.7480    -0.0460     3.1950 hc         1 11K       0.077700
     42 HAKA        -2.2140    -0.2350     4.1790 hc         1 11K       0.077700
     43 HAL         11.2140    -7.4760     5.3630 h1         1 11K       0.050200
     44 HALA         9.6930    -7.6840     6.3320 h1         1 11K       0.050200
     45 HAM          9.5780    -3.8570     6.0900 h1         1 11K       0.050200
     46 HAMA        11.1350    -4.1010     5.1840 h1         1 11K       0.050200
     47 HAN          7.9400    -5.7870     6.0600 h1         1 11K       0.047200
     48 HANA         8.2820    -6.9080     4.6590 h1         1 11K       0.047200
     49 HAO          5.5980     1.7300     2.9700 hc         1 11K       0.083200
     50 HAOA         5.6220     0.9150     1.3490 hc         1 11K       0.083200
     51 HAY         -2.3880     0.0870     1.0370 hc         1 11K       0.089700
     52 HN1         -0.7810    -2.3450     1.6610 hn         1 11K       0.320700
@<TRIPOS>BOND
     1     1     2 1   
     2     1    25 1   
     3     1    52 1   
     4     2    24 2   
     5     3    21 1   
     6     3    24 1   
     7     3    27 1   
     8     4    16 1   
     9     4    17 1   
    10     4    18 1   
    11     5    21 2   
    12     6     8 ar  
    13     6    22 ar  
    14     6    28 1   
    15     7     9 ar  
    16     7    22 ar  
    17     7    29 1   
    18     8    23 ar  
    19     8    30 1   
    20     9    23 ar  
    21     9    31 1   
    22    10    24 1   
    23    10    25 2   
    24    10    32 1   
    25    11    12 1   
    26    11    16 1   
    27    11    33 1   
    28    11    34 1   
    29    12    17 1   
    30    12    35 1   
    31    12    36 1   
    32    13    18 1   
    33    13    20 1   
    34    13    37 1   
    35    13    38 1   
    36    14    15 1   
    37    14    26 1   
    38    14    39 1   
    39    14    40 1   
    40    15    26 1   
    41    15    41 1   
    42    15    42 1   
    43    16    43 1   
    44    16    44 1   
    45    17    45 1   
    46    17    46 1   
    47    18    47 1   
    48    18    48 1   
    49    19    21 1   
    50    19    22 1   
    51    19    49 1   
    52    19    50 1   
    53    20    23 1   
    54    25    26 1   
    55    26    51 1   
@<TRIPOS>SUBSTRUCTURE
     1 11K         1 TEMP              0 ****  ****    0 ROOT
