@<TRIPOS>MOLECULE
molecule
   52    55     1     0     0
SMALL
bcc


@<TRIPOS>ATOM
      1 N1           0.0000     0.0000     0.0000 na         1 11K      -0.043600
      2 N2           1.4010     0.0000     0.0000 nc         1 11K      -0.559800
      3 N3           3.1450     0.0000     1.6760 ns         1 11K      -0.533400
      4 N4           6.3840     0.4290    11.6160 n3         1 11K      -0.718600
      5 OAA          2.5290     0.0010     3.8080 o          1 11K      -0.577100
      6 CAB          4.9270    -1.1960     5.6510 ca         1 11K      -0.071000
      7 CAC          4.9270     1.2000     5.6510 ca         1 11K      -0.071000
      8 CAD          4.9720    -1.1980     7.0320 ca         1 11K      -0.188500
      9 CAE          4.9780     1.2030     7.0310 ca         1 11K      -0.188500
     10 CAF          0.6760     0.0000     2.0760 cd         1 11K      -0.331300
     11 CAG          7.2340    -1.7320    12.2170 c3         1 11K      -0.099900
     12 CAH          6.7620    -1.0320    13.5190 c3         1 11K      -0.099900
     13 CAI          5.0690     1.2760     9.7320 c3         1 11K       0.138400
     14 CAJ         -2.8710    -0.7670     0.9090 cx         1 11K      -0.135900
     15 CAK         -2.8700     0.7630     0.8930 cx         1 11K      -0.135900
     16 CAL          6.4200    -0.9700    11.1410 c3         1 11K       0.154800
     17 CAM          6.5750     0.4340    13.0770 c3         1 11K       0.154800
     18 CAN          5.1170     1.0770    11.2480 c3         1 11K       0.158800
     19 CAO          4.8630     0.0010     3.4550 c3         1 11K      -0.100100
     20 OAS          5.0440     0.0030     9.0840 os         1 11K      -0.332900
     21 CAT          3.4290     0.0000     2.9930 c          1 11K       0.661100
     22 CAU          4.9060     0.0020     4.9610 ca         1 11K      -0.112300
     23 CAV          4.9990     0.0030     7.7250 ca         1 11K       0.149100
     24 CAW          1.8100     0.0000     1.2470 cd         1 11K       0.465200
     25 CAX         -0.4180    -0.0000     1.2830 cc         1 11K      -0.033600
     26 CAY         -1.8520     0.0060     1.7490 cx         1 11K      -0.065400
     27 HN3          3.8860    -0.0110     1.0040 hn         1 11K       0.330500
     28 HAB          4.9080    -2.1340     5.1090 ha         1 11K       0.131500
     29 HAC          4.9110     2.1370     5.1080 ha         1 11K       0.131500
     30 HAD          4.9880    -2.1370     7.5730 ha         1 11K       0.139000
     31 HAE          4.9970     2.1420     7.5710 ha         1 11K       0.139000
     32 HAF          0.6790     0.0000     3.1600 ha         1 11K       0.198000
     33 HAG          8.2980    -1.5920    12.0680 hc         1 11K       0.049450
     34 HAGA         6.9710    -2.7830    12.2280 hc         1 11K       0.049450
     35 HAH          5.8230    -1.4510    13.8580 hc         1 11K       0.049450
     36 HAHA         7.5220    -1.1050    14.2880 hc         1 11K       0.049450
     37 HAI          5.9450     1.8270     9.4130 h1         1 11K       0.043700
     38 HAIA         4.1770     1.8330     9.4700 h1         1 11K       0.043700
     39 HAJ         -2.4770    -1.2440     0.0200 hc         1 11K       0.076950
     40 HAJA        -3.6800    -1.2280     1.4630 hc         1 11K       0.076950
     41 HAK         -3.6780     1.2370     1.4360 hc         1 11K       0.076950
     42 HAKA        -2.4760     1.2210    -0.0070 hc         1 11K       0.076950
     43 HAL          5.4160    -1.3710    11.0750 h1         1 11K       0.048200
     44 HALA         6.9200    -1.0280    10.1810 h1         1 11K       0.048200
     45 HAM          7.4570     1.0100    13.3300 h1         1 11K       0.048200
     46 HAMA         5.7020     0.8550    13.5610 h1         1 11K       0.048200
     47 HAN          4.2880     0.4510    11.5570 h1         1 11K       0.045200
     48 HANA         5.0470     2.0390    11.7420 h1         1 11K       0.045200
     49 HAO          5.3630     0.8860     3.0790 hc         1 11K       0.066700
     50 HAOA         5.3640    -0.8830     3.0800 hc         1 11K       0.066700
     51 HAY         -2.0560     0.0170     2.8130 hc         1 11K       0.105700
     52 HN1         -0.5880    -0.0000    -0.8100 hn         1 11K       0.328700
@<TRIPOS>BOND
     1     2     1 1
     2     1    25 1
     3     2    24 2
     4     3    24 1
     5     3    21 1
     6     3    27 1
     7    16     4 1
     8     4    17 1
     9     4    18 1
    10    21     5 2
    11     8     6 ar
    12     6    22 ar
    13     6    28 1
    14     9     7 ar
    15    22     7 ar
    16     7    29 1
    17     8    23 ar
    18     8    30 1
    19    23     9 ar
    20     9    31 1
    21    24    10 1
    22    25    10 2
    23    10    32 1
    24    11    12 1
    25    11    16 1
    26    11    33 1
    27    11    34 1
    28    12    17 1
    29    12    35 1
    30    12    36 1
    31    18    13 1
    32    20    13 1
    33    13    37 1
    34    13    38 1
    35    26    14 1
    36    15    14 1
    37    14    39 1
    38    14    40 1
    39    26    15 1
    40    15    41 1
    41    15    42 1
    42    16    43 1
    43    16    44 1
    44    17    45 1
    45    17    46 1
    46    18    47 1
    47    18    48 1
    48    22    19 1
    49    19    21 1
    50    19    49 1
    51    19    50 1
    52    20    23 1
    53    25    26 1
    54    26    51 1
    55     1    52 1
@<TRIPOS>SUBSTRUCTURE
     1 11K         1 TEMP              0 ****  ****    0 ROOT
