@<TRIPOS>MOLECULE
11M
   54    58     1     0     0
SMALL
bcc


@<TRIPOS>ATOM
      1 C4          -0.0720     0.3610     0.0820 ca         1 11M      -0.155000
      2 C5           1.3110     0.1970     0.0270 ca         1 11M      -0.052000
      3 C6           2.0670    -0.0130     1.1890 ca         1 11M      -0.257300
      4 C8          -2.2370     0.3180     3.0130 c3         1 11M       0.117400
      5 C10         -0.8420    -1.2820     4.4090 c3         1 11M      -0.096400
      6 C13         -1.3660     1.1130     5.9560 c3         1 11M       0.076500
      7 C15         -0.8650     0.0690     3.7030 c3         1 11M      -0.020700
      8 C22          0.1250    -3.7640     9.5230 cc         1 11M      -0.156800
      9 C24         -2.2640    -4.6250     9.7820 ca         1 11M      -0.101000
     10 C26         -3.9840    -3.1250     8.9470 ca         1 11M      -0.116000
     11 C1           1.4470    -0.0790     2.4540 ca         1 11M      -0.045000
     12 C2           0.0810     0.0810     2.5290 ca         1 11M      -0.154300
     13 C3          -0.6710     0.3030     1.3400 ca         1 11M       0.186100
     14 O13         -2.0130     0.4480     1.5730 os         1 11M      -0.290900
     15 C11         -1.6770    -1.2730     5.6940 c3         1 11M       0.076500
     16 N22         -1.3570    -0.1880     6.5910 n          1 11M      -0.448800
     17 C14         -0.5260     1.1900     4.6790 c3         1 11M      -0.096400
     18 O61          0.1110     0.5720     8.1800 o          1 11M      -0.596100
     19 C30          3.5320    -0.2160     1.0870 c3         1 11M       0.188100
     20 N64          4.2610     1.0950     1.2280 nz         1 11M      -0.849600
     21 C39         -0.5440    -1.6960     8.3850 cc         1 11M      -0.292600
     22 C41         -1.6740    -2.4680     8.7240 ca         1 11M      -0.027000
     23 C42         -1.2750    -3.6920     9.3800 ca         1 11M      -0.034000
     24 S44          0.8340    -2.4100     8.9220 ss         1 11M       0.361800
     25 C25         -3.5880    -4.3430     9.5660 ca         1 11M      -0.122000
     26 C27         -3.0550    -2.2070     8.5300 ca         1 11M      -0.117000
     27 C29          0.6680    -5.1430    11.8040 c3         1 11M      -0.069000
     28 C17         -0.5520    -0.3830     7.7240 c          1 11M       0.704300
     29 S59          1.0670    -5.0050    10.1030 ss         1 11M      -0.139700
     30 H4          -0.6730     0.5210    -0.8260 ha         1 11M       0.179000
     31 H5           1.8090     0.2200    -0.9560 ha         1 11M       0.140000
     32 H8          -2.7130     1.2780     3.3330 h1         1 11M       0.085200
     33 H8A         -2.9420    -0.5420     3.1320 h1         1 11M       0.085200
     34 H10         -1.2450    -2.0770     3.7310 hc         1 11M       0.056450
     35 H10A         0.2220    -1.5440     4.6490 hc         1 11M       0.056450
     36 H13         -2.4390     1.3500     5.7000 h1         1 11M       0.073950
     37 H13A        -0.9960     1.8910     6.6840 h1         1 11M       0.073950
     38 H24         -1.9460    -5.5640    10.2590 ha         1 11M       0.145000
     39 H26         -5.0590    -2.9310     8.8110 ha         1 11M       0.139000
     40 H1           2.0390    -0.2690     3.3630 ha         1 11M       0.142000
     41 H11         -1.5520    -2.2620     6.2180 h1         1 11M       0.073950
     42 H11A        -2.7670    -1.1680     5.4150 h1         1 11M       0.073950
     43 H14         -0.7030     2.1860     4.1970 hc         1 11M       0.056450
     44 H14A         0.5620     1.1240     4.9410 hc         1 11M       0.056450
     45 H30          3.8190    -0.6500     0.0860 hx         1 11M       0.108700
     46 H30A         3.9100    -0.8950     1.9050 hx         1 11M       0.108700
     47 HN64         4.0370     1.5190     2.1340 hn         1 11M       0.455133
     48 HN6A         3.9590     1.7400     0.4910 hn         1 11M       0.455133
     49 H25         -4.3680    -5.0550     9.8740 ha         1 11M       0.141000
     50 H27         -3.3620    -1.2610     8.0610 ha         1 11M       0.143000
     51 H29          1.2680    -6.0080    12.1740 h1         1 11M       0.073700
     52 H29A         0.9470    -4.2330    12.3800 h1         1 11M       0.073700
     53 H29B        -0.4120    -5.3500    11.9730 h1         1 11M       0.073700
     54 H643         5.2720     0.9540     1.1610 hn         1 11M       0.455133
@<TRIPOS>BOND
     1     1     2 ar  
     2     1    13 ar  
     3     1    30 1   
     4     2     3 ar  
     5     2    31 1   
     6     3    11 ar  
     7     3    19 1   
     8     4     7 1   
     9     4    14 1   
    10     4    32 1   
    11     4    33 1   
    12     5     7 1   
    13     5    15 1   
    14     5    34 1   
    15     5    35 1   
    16     6    16 1   
    17     6    17 1   
    18     6    36 1   
    19     6    37 1   
    20     7    12 1   
    21     7    17 1   
    22     8    23 2   
    23     8    24 1   
    24     8    29 1   
    25     9    23 ar  
    26     9    25 ar  
    27     9    38 1   
    28    10    25 ar  
    29    10    26 ar  
    30    10    39 1   
    31    11    12 ar  
    32    11    40 1   
    33    12    13 ar  
    34    13    14 1   
    35    15    16 1   
    36    15    41 1   
    37    15    42 1   
    38    16    28 1   
    39    17    43 1   
    40    17    44 1   
    41    18    28 2   
    42    19    20 1   
    43    19    45 1   
    44    19    46 1   
    45    20    47 1   
    46    20    48 1   
    47    20    54 1   
    48    21    22 2   
    49    21    24 1   
    50    21    28 1   
    51    22    23 ar  
    52    22    26 ar  
    53    25    49 1   
    54    26    50 1   
    55    27    29 1   
    56    27    51 1   
    57    27    52 1   
    58    27    53 1   
@<TRIPOS>SUBSTRUCTURE
     1 11M         1 TEMP              0 ****  ****    0 ROOT
