@<TRIPOS>MOLECULE
11M
   54    58     1     0     0
SMALL
bcc


@<TRIPOS>ATOM
      1 C4           0.0000     0.0000     0.0000 ca         1 11M      -0.115000
      2 C5           1.3780     0.0000     0.0000 ca         1 11M      -0.028000
      3 C6           2.0770     0.0000     1.1940 ca         1 11M      -0.267300
      4 C8          -2.3070     0.4030     2.7780 c3         1 11M       0.200400
      5 C10         -1.1470    -1.3720     4.1330 c3         1 11M      -0.029900
      6 C13         -1.7590     1.0980     5.6290 c3         1 11M       0.031000
      7 C15         -1.0100     0.0130     3.5120 c3         1 11M      -0.037700
      8 C22         -3.2030    -4.0200     8.4940 cc         1 11M       0.108200
      9 C24         -1.3860    -4.5950    10.1740 ca         1 11M      -0.057000
     10 C26          0.3080    -2.9260    10.4820 ca         1 11M      -0.068000
     11 C1           1.3870     0.0010     2.3930 ca         1 11M      -0.004000
     12 C2           0.0090     0.0030     2.3970 ca         1 11M      -0.170300
     13 C3          -0.7030    -0.0030     1.2020 ca         1 11M       0.206100
     14 O13         -2.0460    -0.0230     1.4280 os         1 11M      -0.273900
     15 C11         -2.2510    -1.3450     5.1950 c3         1 11M       0.031000
     16 N22         -1.9650    -0.2610     6.1460 n          1 11M      -0.164800
     17 C14         -0.6580     1.0570     4.5620 c3         1 11M      -0.029900
     18 O61         -1.5560     0.3740     8.2380 o          1 11M      -0.634100
     19 C30          3.5840    -0.0030     1.1890 c3         1 11M       0.050100
     20 N64          4.0760     1.3800     1.1870 nz         1 11M       0.069400
     21 C39         -2.2090    -1.7850     7.9590 cc         1 11M      -0.169600
     22 C41         -1.4570    -2.4770     8.9130 ca         1 11M       0.046000
     23 C42         -2.0390    -3.7740     9.2200 ca         1 11M      -0.054000
     24 S44         -3.5990    -2.7270     7.4630 ss         1 11M      -0.093200
     25 C25         -0.2480    -4.1680    10.7770 ca         1 11M      -0.104000
     26 C27         -0.2670    -2.0920     9.5780 ca         1 11M      -0.099000
     27 C29         -5.4690    -5.1340     7.4400 c3         1 11M       0.096000
     28 H4          -0.5390     0.0000    -0.9400 ha         1 11M       0.135000
     29 H5           1.9170    -0.0010    -0.9400 ha         1 11M       0.108000
     30 H8          -3.1550    -0.1300     3.1900 h1         1 11M       0.041700
     31 H8A         -2.4610     1.4750     2.8180 h1         1 11M       0.041700
     32 H10         -1.4050    -2.0880     3.3620 hc         1 11M       0.028200
     33 H10A        -0.2090    -1.6530     4.5950 hc         1 11M       0.028200
     34 H13         -2.6780     1.4620     5.1860 h1         1 11M       0.046200
     35 H13A        -1.4550     1.7520     6.4380 h1         1 11M       0.046200
     36 H24         -1.7970    -5.5660    10.4220 ha         1 11M       0.120000
     37 H26          1.2180    -2.6190    10.9840 ha         1 11M       0.105000
     38 H1           1.9300     0.0010     3.3300 ha         1 11M       0.108000
     39 H11         -2.2720    -2.2930     5.7200 h1         1 11M       0.046200
     40 H11A        -3.2080    -1.1670     4.7190 h1         1 11M       0.046200
     41 H14         -0.5770     2.0290     4.0910 hc         1 11M       0.028200
     42 H14A         0.2850     0.7960     5.0280 hc         1 11M       0.028200
     43 H30          3.9410    -0.5150     0.3040 hx         1 11M       0.079700
     44 H30A         3.9470    -0.5140     2.0730 hx         1 11M       0.079700
     45 HN64         3.8920     1.8020     2.0750 hn         1 11M       0.222467
     46 HN6A         5.0620     1.3840     1.0140 hn         1 11M       0.222467
     47 H25          0.2390    -4.8080    11.5040 ha         1 11M       0.110000
     48 H27          0.1850    -1.1310     9.3660 ha         1 11M       0.124000
     49 H29         -5.9120    -4.1750     7.6780 h1         1 11M       0.044700
     50 H29A        -5.0660    -5.1070     6.4340 h1         1 11M       0.044700
     51 H29B        -6.2250    -5.9070     7.5050 h1         1 11M       0.044700
     52 C17         -1.8950    -0.5100     7.4680 c          1 11M       0.659300
     53 H643         3.6110     1.8990     0.4680 hn         1 11M       0.222467
     54 S59         -4.1500    -5.5000     8.6240 ss         1 11M      -0.251700
@<TRIPOS>BOND
     1     1     2 ar  
     2     1    13 ar  
     3     1    28 1   
     4     2     3 ar  
     5     2    29 1   
     6     3    11 ar  
     7     3    19 1   
     8     4     7 1   
     9     4    14 1   
    10     4    30 1   
    11     4    31 1   
    12     5     7 1   
    13     5    15 1   
    14     5    32 1   
    15     5    33 1   
    16     6    16 1   
    17     6    17 1   
    18     6    34 1   
    19     6    35 1   
    20     7    12 1   
    21     7    17 1   
    22     8    23 2   
    23     8    24 1   
    24     8    54 1   
    25     9    23 ar  
    26     9    25 ar  
    27     9    36 1   
    28    10    25 ar  
    29    10    26 ar  
    30    10    37 1   
    31    11    12 ar  
    32    11    38 1   
    33    12    13 ar  
    34    13    14 1   
    35    15    16 1   
    36    15    39 1   
    37    15    40 1   
    38    16    52 1   
    39    17    41 1   
    40    17    42 1   
    41    18    52 2   
    42    19    20 1   
    43    19    43 1   
    44    19    44 1   
    45    20    45 1   
    46    20    46 1   
    47    20    53 1   
    48    21    22 2   
    49    21    24 1   
    50    21    52 1   
    51    22    23 ar  
    52    22    26 ar  
    53    25    47 1   
    54    26    48 1   
    55    27    49 1   
    56    27    50 1   
    57    27    51 1   
    58    27    54 1   
@<TRIPOS>SUBSTRUCTURE
     1 11M         1 TEMP              0 ****  ****    0 ROOT
