@<TRIPOS>MOLECULE
11N
   51    54     1     0     0
SMALL
bcc


@<TRIPOS>ATOM
      1 C4           0.1990     0.0100     0.0360 ca         1 11N      -0.047000
      2 C5           1.5870    -0.1960     0.1820 ca         1 11N      -0.257300
      3 C6           2.1590    -0.3650     1.4510 ca         1 11N      -0.051000
      4 C7          -2.0740     0.2100     1.3460 c3         1 11N      -0.019700
      5 C8          -2.2260     0.1030     2.8920 c3         1 11N       0.117400
      6 C10         -2.8400    -0.9040     0.6390 c3         1 11N      -0.097900
      7 C13         -4.0460     1.7210     0.8590 c3         1 11N       0.078500
      8 C15          2.4520    -0.1880    -1.0210 c3         1 11N       0.188100
      9 C20         -6.5700     2.3800    -2.4290 ce         1 11N      -0.004200
     10 C22         -6.3270     4.8600    -2.6170 ca         1 11N      -0.104000
     11 C24         -7.5920     6.0730    -4.2800 ca         1 11N      -0.106000
     12 C26         -7.8310     3.6750    -4.0960 ca         1 11N      -0.104000
     13 C1           1.3790    -0.3500     2.6070 ca         1 11N      -0.155000
     14 C2           0.0070    -0.1570     2.4460 ca         1 11N       0.186100
     15 C3          -0.5880     0.0260     1.1670 ca         1 11N      -0.155300
     16 O15         -0.9010    -0.1210     3.4710 os         1 11N      -0.290900
     17 C11         -4.3520    -0.6610     0.6420 c3         1 11N       0.078500
     18 N22         -4.7290     0.6550     0.1700 n          1 11N      -0.453800
     19 C14         -2.5190     1.5800     0.8450 c3         1 11N      -0.097900
     20 N33          2.5350    -1.5650    -1.6250 nz         1 11N      -0.848600
     21 O37         -5.5280    -0.2350    -1.7800 o          1 11N      -0.599100
     22 C19         -5.4750     2.1430    -1.6880 cf         1 11N      -0.257200
     23 C41         -6.8990     3.6530    -3.0450 ca         1 11N      -0.093800
     24 C23         -6.6730     6.0610    -3.2320 ca         1 11N      -0.132000
     25 C25         -8.1700     4.8780    -4.7110 ca         1 11N      -0.132000
     26 C17         -5.2320     0.7910    -1.1320 c          1 11N       0.658300
     27 H4          -0.2450     0.1670    -0.9580 ha         1 11N       0.142000
     28 H6           3.2480    -0.5000     1.5490 ha         1 11N       0.141000
     29 H8          -2.6020     1.0490     3.3540 h1         1 11N       0.084700
     30 H8A         -2.8460    -0.7730     3.2040 h1         1 11N       0.084700
     31 H10         -2.4750    -0.9750    -0.4190 hc         1 11N       0.055950
     32 H10A        -2.6370    -1.8860     1.1390 hc         1 11N       0.055950
     33 H13         -4.3280     2.7210     0.4330 h1         1 11N       0.070950
     34 H13A        -4.3950     1.7040     1.9340 h1         1 11N       0.070950
     35 H15          3.5050     0.1310    -0.7700 hx         1 11N       0.108700
     36 H15A         2.0390     0.4980    -1.8170 hx         1 11N       0.108700
     37 H20         -7.2930     1.5600    -2.6130 ha         1 11N       0.151000
     38 H26         -8.2930     2.7360    -4.4360 ha         1 11N       0.133000
     39 H1           1.8210    -0.4770     3.6060 ha         1 11N       0.180000
     40 H11         -4.8500    -1.4480     0.0070 h1         1 11N       0.070950
     41 H11A        -4.7360    -0.7640     1.6980 h1         1 11N       0.070950
     42 H14         -2.1330     1.7260    -0.1980 hc         1 11N       0.055950
     43 H14A        -2.0790     2.3850     1.4880 hc         1 11N       0.055950
     44 HN33         3.1260    -1.5560    -2.4600 hn         1 11N       0.455133
     45 HN3A         1.5960    -1.8890    -1.8770 hn         1 11N       0.455133
     46 H19         -4.7100     2.9120    -1.5090 ha         1 11N       0.135000
     47 H23         -6.2220     7.0030    -2.8850 ha         1 11N       0.139500
     48 H25         -8.8980     4.8850    -5.5360 ha         1 11N       0.139500
     49 H22         -5.6100     4.8630    -1.7830 ha         1 11N       0.133000
     50 H333         2.9260    -2.2200    -0.9410 hn         1 11N       0.455133
     51 H24         -7.8650     7.0230    -4.7650 ha         1 11N       0.141000
@<TRIPOS>BOND
     1     1     2 ar  
     2     1    15 ar  
     3     1    27 1   
     4     2     3 ar  
     5     2     8 1   
     6     3    13 ar  
     7     3    28 1   
     8     4     5 1   
     9     4     6 1   
    10     4    15 1   
    11     4    19 1   
    12     5    16 1   
    13     5    29 1   
    14     5    30 1   
    15     6    17 1   
    16     6    31 1   
    17     6    32 1   
    18     7    18 1   
    19     7    19 1   
    20     7    33 1   
    21     7    34 1   
    22     8    20 1   
    23     8    35 1   
    24     8    36 1   
    25     9    22 2   
    26     9    23 1   
    27     9    37 1   
    28    10    23 ar  
    29    10    24 ar  
    30    10    49 1   
    31    11    24 ar  
    32    11    25 ar  
    33    11    51 1   
    34    12    23 ar  
    35    12    25 ar  
    36    12    38 1   
    37    13    14 ar  
    38    13    39 1   
    39    14    15 ar  
    40    14    16 1   
    41    17    18 1   
    42    17    40 1   
    43    17    41 1   
    44    18    26 1   
    45    19    42 1   
    46    19    43 1   
    47    20    44 1   
    48    20    45 1   
    49    20    50 1   
    50    21    26 2   
    51    22    26 1   
    52    22    46 1   
    53    24    47 1   
    54    25    48 1   
@<TRIPOS>SUBSTRUCTURE
     1 11N         1 TEMP              0 ****  ****    0 ROOT
