@<TRIPOS>MOLECULE
molecule
   51    54     1     0     0
SMALL
bcc


@<TRIPOS>ATOM
      1 C4           0.0000     0.0000     0.0000 ca         1 11N      -0.046000
      2 C5           1.3830     0.0000     0.0000 ca         1 11N      -0.243300
      3 C6           2.0700     0.0000     1.2000 ca         1 11N      -0.065000
      4 C7          -2.1650     0.0140     1.5180 c3         1 11N      -0.045700
      5 C8          -2.1740     0.3940     3.0120 c3         1 11N       0.133400
      6 C10         -2.7800    -1.3640     1.3170 c3         1 11N      -0.087900
      7 C13         -4.3660     1.1170     1.1140 c3         1 11N       0.104500
      8 C15          2.1390    -0.0000    -1.3040 c3         1 11N       0.168100
      9 C20         -7.5650    -2.0950    -0.6890 ce         1 11N       0.003800
     10 C22         -9.1360    -3.7350    -1.7050 ca         1 11N      -0.103000
     11 C24         -8.9630    -6.0680    -1.1940 ca         1 11N      -0.106000
     12 C26         -7.4270    -4.5290    -0.1910 ca         1 11N      -0.103000
     13 C1           1.3830    -0.0060     2.3950 ca         1 11N      -0.141000
     14 C2          -0.0100    -0.0130     2.4040 ca         1 11N       0.187100
     15 C3          -0.6900    -0.0010     1.1920 ca         1 11N      -0.158300
     16 O15         -0.8760    -0.0400     3.4560 os         1 11N      -0.287900
     17 C11         -4.2530    -1.3310     1.7390 c3         1 11N       0.104500
     18 N22         -4.9250    -0.2390     1.0230 n          1 11N      -0.497800
     19 C14         -2.8910     1.0700     0.6970 c3         1 11N      -0.087900
     20 N33          2.3840     1.3850    -1.7280 nz         1 11N      -0.811600
     21 O37         -6.6350     0.4510    -0.2170 o          1 11N      -0.609100
     22 C19         -6.5180    -1.8460     0.1220 cf         1 11N      -0.283200
     23 C41         -8.0510    -3.4730    -0.8650 ca         1 11N      -0.094800
     24 C23         -9.5860    -5.0290    -1.8640 ca         1 11N      -0.130000
     25 C25         -7.8870    -5.8170    -0.3610 ca         1 11N      -0.130000
     26 H4          -0.5410    -0.0000    -0.9380 ha         1 11N       0.137000
     27 H6           3.1530     0.0000     1.2000 ha         1 11N       0.140000
     28 H8          -2.9560    -0.1410     3.5370 h1         1 11N       0.083700
     29 H8A         -2.2820     1.4650     3.1330 h1         1 11N       0.083700
     30 H10         -2.7110    -1.6390     0.2720 hc         1 11N       0.057200
     31 H10A        -2.2480    -2.0870     1.9230 hc         1 11N       0.057200
     32 H13         -4.4430     1.4730     2.1340 h1         1 11N       0.066700
     33 H13A        -4.9090     1.7790     0.4500 h1         1 11N       0.066700
     34 H15          3.0860    -0.5100    -1.1720 hx         1 11N       0.110200
     35 H15A         1.5550    -0.5110    -2.0600 hx         1 11N       0.110200
     36 H20         -8.0490    -1.2790    -1.2130 ha         1 11N       0.159000
     37 H26         -6.5840    -4.3340     0.4610 ha         1 11N       0.132500
     38 H1           1.9290    -0.0060     3.3310 ha         1 11N       0.169000
     39 H11         -4.3210    -1.1600     2.8070 h1         1 11N       0.066700
     40 H11A        -4.7230    -2.2740     1.4860 h1         1 11N       0.066700
     41 H14         -2.4370     2.0380     0.8720 hc         1 11N       0.057200
     42 H14A        -2.8220     0.8180    -0.3550 hc         1 11N       0.057200
     43 HN33         3.0240     1.3890    -2.4980 hn         1 11N       0.453133
     44 HN3A         2.7760     1.9030    -0.9670 hn         1 11N       0.453133
     45 H19         -6.0330    -2.6620     0.6450 ha         1 11N       0.132000
     46 H23        -10.4270    -5.2330    -2.5150 ha         1 11N       0.137000
     47 H25         -7.4050    -6.6360     0.1600 ha         1 11N       0.137000
     48 C17         -6.0350    -0.4750     0.2960 c          1 11N       0.676300
     49 H22         -9.6240    -2.9230    -2.2300 ha         1 11N       0.132500
     50 H333         1.5210     1.8050    -2.0110 hn         1 11N       0.453133
     51 H24         -9.3200    -7.0830    -1.3230 ha         1 11N       0.137000
@<TRIPOS>BOND
     1     1     2 ar  
     2     1    15 ar  
     3     2     3 ar  
     4     2     8 1   
     5     3    13 ar  
     6     4     5 1   
     7     4     6 1   
     8     4    15 1   
     9     4    19 1   
    10     5    16 1   
    11     6    17 1   
    12     7    18 1   
    13     7    19 1   
    14     8    20 1   
    15    48    18 1   
    16    48    21 2   
    17    48    22 1   
    18     9    22 2   
    19     9    23 1   
    20    10    23 ar  
    21    10    24 ar  
    22    11    24 ar  
    23    11    25 ar  
    24    12    23 ar  
    25    12    25 ar  
    26    13    14 ar  
    27    14    15 ar  
    28    14    16 1   
    29    17    18 1   
    30     1    26 1   
    31     3    27 1   
    32     5    28 1   
    33     5    29 1   
    34     6    30 1   
    35     6    31 1   
    36     7    32 1   
    37     7    33 1   
    38     8    34 1   
    39     8    35 1   
    40     9    36 1   
    41    10    49 1   
    42    11    51 1   
    43    12    37 1   
    44    13    38 1   
    45    17    39 1   
    46    17    40 1   
    47    19    41 1   
    48    19    42 1   
    49    20    43 1   
    50    20    44 1   
    51    22    45 1   
    52    24    46 1   
    53    25    47 1   
    54    50    20 1   
@<TRIPOS>SUBSTRUCTURE
     1 11N         1 TEMP              0 ****  ****    0 ROOT
