@<TRIPOS>MOLECULE
11N
   51    56     1     0     0
SMALL
bcc


@<TRIPOS>ATOM
      1 C4           0.0000     0.0000     0.0000 ca         1 11N      -0.004000
      2 C5           1.3830     0.0000     0.0000 ca         1 11N      -0.259000
      3 C6           2.0700     0.0000     1.2000 ca         1 11N      -0.028000
      4 C7          -2.1650     0.0140     1.5180 c3         1 11N      -0.044000
      5 C8          -2.1740     0.3940     3.0120 c3         1 11N       0.050000
      6 C10         -2.7800    -1.3640     1.3170 c3         1 11N      -0.113500
      7 C13         -4.3660     1.1170     1.1140 c3         1 11N      -0.058500
      8 C15          2.1390    -0.0000    -1.3040 c3         1 11N      -0.194000
      9 C20         -7.5650    -2.0950    -0.6890 c2         1 11N       0.025000
     10 C22         -9.1360    -3.7350    -1.7050 c2         1 11N      -0.142500
     11 C24         -8.9630    -6.0680    -1.1940 c2         1 11N      -0.118000
     12 C26         -7.4270    -4.5290    -0.1910 c2         1 11N      -0.142500
     13 C1           1.3830    -0.0060     2.3950 ca         1 11N      -0.113000
     14 C2          -0.0100    -0.0130     2.4040 ca         1 11N       0.162000
     15 C3          -0.6900    -0.0010     1.1920 ca         1 11N      -0.165000
     16 O15         -0.8760    -0.0400     3.4560 os         1 11N      -0.155000
     17 C11         -4.2530    -1.3310     1.7390 c3         1 11N      -0.058500
     18 N22         -4.9250    -0.2390     1.0230 n3         1 11N      -0.058000
     19 C14         -2.8910     1.0700     0.6970 c3         1 11N      -0.113500
     20 N33          2.3840     1.3850    -1.7280 nz         1 11N       0.842000
     21 O37         -6.6350     0.4510    -0.2170 o          1 11N      -0.434000
     22 C19         -6.5180    -1.8460     0.1220 c2         1 11N      -0.159000
     23 C41         -8.0510    -3.4730    -0.8650 c3         1 11N      -0.029000
     24 C23         -9.5860    -5.0290    -1.8640 c2         1 11N      -0.069000
     25 C25         -7.8870    -5.8170    -0.3610 c2         1 11N      -0.069000
     26 H4          -0.5410    -0.0000    -0.9380 ha         1 11N       0.107000
     27 H6           3.1530     0.0000     1.2000 ha         1 11N       0.108000
     28 H8          -2.2820     1.4650     3.1330 h1         1 11N       0.082000
     29 H8A         -2.9560    -0.1410     3.5370 h1         1 11N       0.082000
     30 H10         -2.7110    -1.6390     0.2720 hc         1 11N       0.066750
     31 H10A        -2.2480    -2.0870     1.9230 hc         1 11N       0.066750
     32 H13         -4.4430     1.4730     2.1340 h1         1 11N       0.082000
     33 H13A        -4.9090     1.7790     0.4500 h1         1 11N       0.082000
     34 H15          3.0860    -0.5100    -1.1720 hx         1 11N       0.119500
     35 H15A         1.5550    -0.5110    -2.0600 hx         1 11N       0.119500
     36 H20         -7.0880    -2.8360    -1.3190 DU         1 11N       0.108000
     37 H26         -6.5840    -4.3340     0.4610 ha         1 11N       0.117500
     38 H1           1.9290    -0.0060     3.3310 ha         1 11N       0.136000
     39 H11         -4.3210    -1.1600     2.8070 h1         1 11N       0.082000
     40 H11A        -4.7230    -2.2740     1.4860 h1         1 11N       0.082000
     41 H14         -2.8220     0.8180    -0.3550 hc         1 11N       0.066750
     42 H14A        -2.4370     2.0380     0.8720 hc         1 11N       0.066750
     43 HN33         2.7760     1.9030    -0.9670 hn         1 11N       0.018000
     44 HN3A         3.0240     1.3890    -2.4980 hn         1 11N       0.018000
     45 H19         -5.9010    -1.3190    -0.5960 DU         1 11N       0.007000
     46 H23        -10.4270    -5.2330    -2.5150 ha         1 11N       0.107500
     47 H25         -7.4050    -6.6360     0.1600 ha         1 11N       0.107500
     48 C17         -6.0350    -0.4750     0.2960 c3         1 11N       0.374000
     49 H22         -9.6240    -2.9230    -2.2300 ha         1 11N       0.117500
     50 H333         1.5210     1.8050    -2.0110 hn         1 11N       0.018000
     51 H24         -9.3200    -7.0830    -1.3230 ha         1 11N       0.110000
@<TRIPOS>BOND
     1     1     2 1   
     2     1    15 1   
     3     1    26 1   
     4     2     3 1   
     5     2     8 1   
     6     3    13 1   
     7     3    27 1   
     8     4     5 1   
     9     4     6 1   
    10     4    15 1   
    11     4    19 1   
    12     5    16 1   
    13     5    28 1   
    14     5    29 1   
    15     6    17 1   
    16     6    30 1   
    17     6    31 1   
    18     7    18 1   
    19     7    19 1   
    20     7    32 1   
    21     7    33 1   
    22     8    20 1   
    23     8    34 1   
    24     8    35 1   
    25     9    22 1   
    26     9    23 1   
    27     9    36 1   
    28    10    23 1   
    29    10    24 1   
    30    10    49 1   
    31    11    24 1   
    32    11    25 1   
    33    11    51 1   
    34    12    23 1   
    35    12    25 1   
    36    12    37 1   
    37    13    14 1   
    38    13    38 1   
    39    14    15 1   
    40    14    16 1   
    41    17    18 1   
    42    17    39 1   
    43    17    40 1   
    44    18    48 1   
    45    19    41 1   
    46    19    42 1   
    47    20    43 1   
    48    20    44 1   
    49    20    50 1   
    50    21    48 1   
    51    22    45 1   
    52    22    48 1   
    53    23    36 1   
    54    24    46 1   
    55    25    47 1   
    56    45    48 1   
@<TRIPOS>SUBSTRUCTURE
     1 11N         1 TEMP              0 ****  ****    0 ROOT
