@<TRIPOS>MOLECULE
11O
   53    53     1     0     0
SMALL
bcc


@<TRIPOS>ATOM
      1 C1          1.3970    1.6390   -0.8560 c         1 11O      0.907600
      2 C2          2.2960    0.4910   -0.3620 c3        1 11O     -0.194400
      3 C3          2.8480    0.7790    1.0120 c3        1 11O     -0.065400
      4 C4          3.8900   -0.2380    1.4270 c3        1 11O     -0.078400
      5 C5          4.4270    0.0520    2.8130 c3        1 11O     -0.079400
      6 C6          5.4880   -0.9490    3.2170 c3        1 11O     -0.079400
      7 C7          6.0290   -0.6530    4.5990 c3        1 11O     -0.078400
      8 C8          7.1040   -1.6460    4.9900 c3        1 11O     -0.059200
      9 C9          7.6650   -1.3680    6.3340 c2        1 11O     -0.137200
     10 C10         8.7960   -1.8950    6.8100 c2        1 11O     -0.221200
     11 C11         9.6700   -2.8430    6.0520 c3        1 11O      0.184300
     12 C12        10.6320   -2.0840    5.1590 cx        1 11O      0.033100
     13 C13        11.8390   -2.7620    4.6060 cx        1 11O      0.072100
     14 C14        12.4540   -2.3070    3.3190 c3        1 11O     -0.076400
     15 C15        13.8760   -2.8070    3.1790 c3        1 11O     -0.076400
     16 C16        14.4900   -2.3420    1.8750 c3        1 11O     -0.080400
     17 C17        15.9110   -2.8460    1.7270 c3        1 11O     -0.079400
     18 C18        16.5270   -2.3850    0.4320 c3        1 11O     -0.092100
     19 O19         1.8050    2.8280   -0.7170 o         1 11O     -0.852800
     20 O20         0.2950    1.3310   -1.3950 o         1 11O     -0.852800
     21 O21        10.3660   -3.7140    6.9290 oh        1 11O     -0.596800
     22 O22        11.9360   -1.8510    5.7200 os        1 11O     -0.417600
     23 H21         3.1350    0.3760   -1.0950 hc        1 11O      0.018700
     24 H22         1.7120   -0.4630   -0.3570 hc        1 11O      0.018700
     25 H31         3.2930    1.8100    1.0120 hc        1 11O      0.044200
     26 H32         2.0100    0.7810    1.7580 hc        1 11O      0.044200
     27 H41         3.4430   -1.2670    1.4060 hc        1 11O      0.026200
     28 H42         4.7350   -0.2310    0.6900 hc        1 11O      0.026200
     29 H51         3.5850    0.0270    3.5540 hc        1 11O      0.037700
     30 H52         4.8570    1.0880    2.8370 hc        1 11O      0.037700
     31 H61         5.0570   -1.9840    3.1950 hc        1 11O      0.034700
     32 H62         6.3270   -0.9260    2.4720 hc        1 11O      0.034700
     33 H71         5.1920   -0.6890    5.3460 hc        1 11O      0.041200
     34 H72         6.4500    0.3860    4.6240 hc        1 11O      0.041200
     35 H81         6.6730   -2.6860    4.9830 hc        1 11O      0.048700
     36 H82         7.9230   -1.6290    4.2210 hc        1 11O      0.048700
     37 H91         7.0740   -0.6790    6.9610 ha        1 11O      0.127000
     38 H101        9.1470   -1.6610    7.8280 ha        1 11O      0.128000
     39 H111        9.0460   -3.5360    5.4140 h1        1 11O      0.088700
     40 H121       10.1910   -1.2070    4.6470 h1        1 11O      0.104700
     41 H131       12.0400   -3.8170    4.8850 h1        1 11O      0.098700
     42 H141       11.8280   -2.6960    2.4720 hc        1 11O      0.057700
     43 H142       12.4410   -1.1860    3.2650 hc        1 11O      0.057700
     44 H151       14.4890   -2.4330    4.0410 hc        1 11O      0.043700
     45 H152       13.8890   -3.9280    3.2230 hc        1 11O      0.043700
     46 H161       13.8700   -2.7090    1.0150 hc        1 11O      0.041700
     47 H162       14.4830   -1.2210    1.8340 hc        1 11O      0.041700
     48 H171       15.9160   -3.9670    1.7690 hc        1 11O      0.037700
     49 H172       16.5280   -2.4800    2.5900 hc        1 11O      0.037700
     50 H181       17.5730   -2.7660    0.3420 hc        1 11O      0.032367
     51 H182       16.5530   -1.2690    0.3830 hc        1 11O      0.032367
     52 H183       15.9390   -2.7590   -0.4400 hc        1 11O      0.032367
     53 H211       11.0170   -3.1810    7.4050 ho        1 11O      0.411000
@<TRIPOS>BOND
     1    1    2 1   
     2    1   19 1   
     3    1   20 1   
     4    2    3 1   
     5    2   23 1   
     6    2   24 1   
     7    3    4 1   
     8    3   25 1   
     9    3   26 1   
    10    4    5 1   
    11    4   27 1   
    12    4   28 1   
    13    5    6 1   
    14    5   29 1   
    15    5   30 1   
    16    6    7 1   
    17    6   31 1   
    18    6   32 1   
    19    7    8 1   
    20    7   33 1   
    21    7   34 1   
    22    8    9 1   
    23    8   35 1   
    24    8   36 1   
    25    9   10 2   
    26    9   37 1   
    27   10   11 1   
    28   10   38 1   
    29   11   12 1   
    30   11   21 1   
    31   11   39 1   
    32   12   13 1   
    33   12   22 1   
    34   12   40 1   
    35   13   14 1   
    36   13   22 1   
    37   13   41 1   
    38   14   15 1   
    39   14   42 1   
    40   14   43 1   
    41   15   16 1   
    42   15   44 1   
    43   15   45 1   
    44   16   17 1   
    45   16   46 1   
    46   16   47 1   
    47   17   18 1   
    48   17   48 1   
    49   17   49 1   
    50   18   50 1   
    51   18   51 1   
    52   18   52 1   
    53   21   53 1   
@<TRIPOS>SUBSTRUCTURE
     1 11O         1 TEMP              0 ****  ****    0 ROOT
