@<TRIPOS>MOLECULE
11O
   53    53     1     0     0
SMALL
bcc


@<TRIPOS>ATOM
      1 C1           0.4420     0.0490     0.8410 c          1 11O       0.907600
      2 C2           1.3490    -0.8220    -0.0480 c3         1 11O      -0.196400
      3 C3           2.7890    -0.7790     0.4100 c3         1 11O      -0.046400
      4 C4           2.9810    -1.5370     1.7060 c3         1 11O      -0.096400
      5 C5           4.3570    -1.3060     2.2920 c3         1 11O      -0.072400
      6 C6           4.5250    -2.0500     3.5990 c3         1 11O      -0.080400
      7 C7           5.8930    -1.8100     4.2010 c3         1 11O      -0.075400
      8 C8           6.0420    -2.5390     5.5230 c3         1 11O      -0.057200
      9 C9           7.3890    -2.3420     6.1100 c2         1 11O      -0.128200
     10 C10          7.6000    -2.0530     7.3960 c2         1 11O      -0.240200
     11 C11          8.9460    -1.8540     8.0120 c3         1 11O       0.184300
     12 C12          9.3230    -3.0370     8.8840 cx         1 11O       0.080100
     13 C13          8.4650    -3.4390    10.0340 cx         1 11O       0.069100
     14 C14          8.4510    -4.8460    10.5480 c3         1 11O      -0.073400
     15 C15          7.1540    -5.5420    10.1920 c3         1 11O      -0.078400
     16 C16          7.1350    -6.9600    10.7220 c3         1 11O      -0.078400
     17 C17          5.8400    -7.6600    10.3700 c3         1 11O      -0.081400
     18 C18          5.8150    -9.0720    10.8940 c3         1 11O      -0.092100
     19 O19          0.0460     1.1570     0.3790 o          1 11O      -0.853300
     20 O20          0.1230    -0.3860     1.9870 o          1 11O      -0.853300
     21 O21          9.9920    -1.7330     7.0510 oh         1 11O      -0.600800
     22 O22          9.6930    -2.7140    10.2350 op         1 11O      -0.411600
     23 H21          1.2840    -0.4500    -1.1010 hc         1 11O       0.020700
     24 H22          0.9710    -1.8750    -0.0220 hc         1 11O       0.020700
     25 H31          3.0960     0.2910     0.5510 hc         1 11O       0.012700
     26 H32          3.4560    -1.2150    -0.3810 hc         1 11O       0.012700
     27 H41          2.1820    -1.2040     2.4300 hc         1 11O       0.063200
     28 H42          2.8290    -2.6340     1.5270 hc         1 11O       0.063200
     29 H51          4.5100    -0.2080     2.4640 hc         1 11O       0.027200
     30 H52          5.1430    -1.6400     1.5650 hc         1 11O       0.027200
     31 H61          4.3770    -3.1490     3.4280 hc         1 11O       0.041700
     32 H62          3.7310    -1.7180     4.3190 hc         1 11O       0.041700
     33 H71          6.0450    -0.7100     4.3600 hc         1 11O       0.037200
     34 H72          6.6860    -2.1550     3.4870 hc         1 11O       0.037200
     35 H81          5.8830    -3.6400     5.3580 hc         1 11O       0.051200
     36 H82          5.2420    -2.1930     6.2310 hc         1 11O       0.051200
     37 H91          8.2320    -2.4630     5.4070 ha         1 11O       0.126000
     38 H101         6.7640    -1.9390     8.1050 ha         1 11O       0.129000
     39 H111         8.9280    -0.9150     8.6430 h1         1 11O       0.055700
     40 H121         9.9950    -3.7650     8.3890 h1         1 11O       0.107700
     41 H131         7.5550    -2.8490    10.2680 h1         1 11O       0.088700
     42 H141         9.3200    -5.4170    10.1280 hc         1 11O       0.053200
     43 H142         8.5790    -4.8220    11.6630 hc         1 11O       0.053200
     44 H151         7.0250    -5.5540     9.0780 hc         1 11O       0.046200
     45 H152         6.2880    -4.9700    10.6190 hc         1 11O       0.046200
     46 H161         8.0000    -7.5330    10.2930 hc         1 11O       0.038700
     47 H162         7.2660    -6.9480    11.8360 hc         1 11O       0.038700
     48 H171         4.9760    -7.0840    10.7970 hc         1 11O       0.042200
     49 H172         5.7100    -7.6680     9.2560 hc         1 11O       0.042200
     50 H181         5.9180    -9.0830    12.0060 hc         1 11O       0.031033
     51 H182         4.8520    -9.5690    10.6240 hc         1 11O       0.031033
     52 H183         6.6540    -9.6690    10.4600 hc         1 11O       0.031033
     53 H211         9.7200    -1.0440     6.4340 ho         1 11O       0.409000
@<TRIPOS>BOND
     1     1     2 1   
     2     1    19 1   
     3     1    20 1   
     4     2     3 1   
     5     2    23 1   
     6     2    24 1   
     7     3     4 1   
     8     3    25 1   
     9     3    26 1   
    10     4     5 1   
    11     4    27 1   
    12     4    28 1   
    13     5     6 1   
    14     5    29 1   
    15     5    30 1   
    16     6     7 1   
    17     6    31 1   
    18     6    32 1   
    19     7     8 1   
    20     7    33 1   
    21     7    34 1   
    22     8     9 1   
    23     8    35 1   
    24     8    36 1   
    25     9    10 2   
    26     9    37 1   
    27    10    11 1   
    28    10    38 1   
    29    11    12 1   
    30    11    21 1   
    31    11    39 1   
    32    12    13 1   
    33    12    22 1   
    34    12    40 1   
    35    13    14 1   
    36    13    22 1   
    37    13    41 1   
    38    14    15 1   
    39    14    42 1   
    40    14    43 1   
    41    15    16 1   
    42    15    44 1   
    43    15    45 1   
    44    16    17 1   
    45    16    46 1   
    46    16    47 1   
    47    17    18 1   
    48    17    48 1   
    49    17    49 1   
    50    18    50 1   
    51    18    51 1   
    52    18    52 1   
    53    21    53 1   
@<TRIPOS>SUBSTRUCTURE
     1 11O         1 TEMP              0 ****  ****    0 ROOT
