@<TRIPOS>MOLECULE
molecule
   53    53     1     0     0
SMALL
bcc


@<TRIPOS>ATOM
      1 C1           0.0000     0.0000     0.0000 c          1 11O       0.890600
      2 C2           1.5070     0.0000     0.0000 c3         1 11O      -0.183400
      3 C3           2.0180     0.0000     1.4420 c3         1 11O      -0.063400
      4 C4           3.5480     0.0010     1.4410 c3         1 11O      -0.089400
      5 C5           4.0590     0.0010     2.8820 c3         1 11O      -0.078400
      6 C6           5.5890     0.0010     2.8810 c3         1 11O      -0.092400
      7 C7           6.1000     0.0020     4.3230 c3         1 11O      -0.097400
      8 C8           7.6300     0.0030     4.3230 c3         1 11O       0.087800
      9 C9           8.1320     0.0030     5.7430 c2         1 11O      -0.215200
     10 C10          8.9950    -0.9020     6.1320 c2         1 11O      -0.295200
     11 C11          9.6100    -1.8390     5.1240 c3         1 11O       0.254300
     12 C12         11.1350    -1.7910     5.2480 cx         1 11O       0.000100
     13 C13         11.9530    -2.7200     4.3490 cx         1 11O       0.041100
     14 C14         13.3120    -2.2210     3.8560 c3         1 11O      -0.066400
     15 C15         13.9780    -3.3050     3.0080 c3         1 11O      -0.079400
     16 C16         15.3350    -2.8060     2.5130 c3         1 11O      -0.082400
     17 C17         16.0020    -3.8900     1.6640 c3         1 11O      -0.083400
     18 C18         17.3590    -3.3900     1.1700 c3         1 11O      -0.092100
     19 O19         -0.6030    -0.0000     1.0470 o          1 11O      -0.857300
     20 O20         -0.6720    -0.0000    -1.1620 o          1 11O      -0.857300
     21 O21          9.1540    -3.1700     5.3710 oh         1 11O      -0.599800
     22 O22         11.8000    -2.9540     5.7510 op         1 11O      -0.381600
     23 H21          1.8670    -0.8840    -0.5110 hc         1 11O       0.026700
     24 H22          1.8670     0.8840    -0.5110 hc         1 11O       0.026700
     25 H31          1.6580    -0.8850     1.9520 hc         1 11O       0.045700
     26 H32          1.6570     0.8840     1.9530 hc         1 11O       0.045700
     27 H41          3.9100    -0.8830     0.9300 hc         1 11O       0.028700
     28 H42          3.9080     0.8860     0.9300 hc         1 11O       0.028700
     29 H51          3.6980     0.8860     3.3930 hc         1 11O       0.041700
     30 H52          3.6980    -0.8830     3.3930 hc         1 11O       0.041700
     31 H61          5.9500     0.8860     2.3700 hc         1 11O       0.034200
     32 H62          5.9500    -0.8830     2.3700 hc         1 11O       0.034200
     33 H71          5.7400    -0.8830     4.8340 hc         1 11O       0.057700
     34 H72          5.7380     0.8860     4.8340 hc         1 11O       0.057700
     35 H81          7.9900     0.8880     3.8130 hc         1 11O       0.043700
     36 H82          7.9910    -0.8810     3.8120 hc         1 11O       0.043700
     37 H91          8.6950     0.4800     4.9510 ha         1 11O       0.046000
     38 H101         8.4830    -1.8050     5.8220 ha         1 11O       0.126000
     39 H111         9.3200    -1.5370     4.1250 h1         1 11O       0.107700
     40 H121        11.6160    -0.8520     5.4900 h1         1 11O       0.104700
     41 H131        11.3670    -3.3720     3.7120 h1         1 11O       0.100700
     42 H141        13.1730    -1.3290     3.2580 hc         1 11O       0.054200
     43 H142        13.9420    -1.9900     4.7070 hc         1 11O       0.054200
     44 H151        14.1180    -4.1960     3.6060 hc         1 11O       0.046700
     45 H152        13.3470    -3.5360     2.1580 hc         1 11O       0.046700
     46 H161        15.1960    -1.9140     1.9140 hc         1 11O       0.041200
     47 H162        15.9660    -2.5740     3.3630 hc         1 11O       0.041200
     48 H171        16.1420    -4.7820     2.2640 hc         1 11O       0.041200
     49 H172        15.3710    -4.1220     0.8150 hc         1 11O       0.041200
     50 H181        17.8300    -4.1590     0.5690 hc         1 11O       0.032033
     51 H182        17.9900    -3.1590     2.0190 hc         1 11O       0.032033
     52 H183        17.2190    -2.4990     0.5700 hc         1 11O       0.032033
     53 H211         9.3950    -3.4270     6.2460 ho         1 11O       0.434000
@<TRIPOS>BOND
     1     1     2 1   
     2     1    19 1   
     3     1    20 1   
     4     2     3 1   
     5     2    23 1   
     6     2    24 1   
     7     3     4 1   
     8     3    25 1   
     9     3    26 1   
    10     4     5 1   
    11     4    27 1   
    12     4    28 1   
    13     5     6 1   
    14     5    29 1   
    15     5    30 1   
    16     6     7 1   
    17     6    31 1   
    18     6    32 1   
    19     7     8 1   
    20     7    33 1   
    21     7    34 1   
    22     8     9 1   
    23     8    35 1   
    24     8    36 1   
    25     9    10 2   
    26     9    37 1   
    27    10    11 1   
    28    10    38 1   
    29    11    12 1   
    30    11    21 1   
    31    11    39 1   
    32    12    13 1   
    33    12    22 1   
    34    12    40 1   
    35    13    14 1   
    36    13    22 1   
    37    13    41 1   
    38    14    15 1   
    39    14    42 1   
    40    14    43 1   
    41    15    16 1   
    42    15    44 1   
    43    15    45 1   
    44    16    17 1   
    45    16    46 1   
    46    16    47 1   
    47    17    18 1   
    48    17    48 1   
    49    17    49 1   
    50    18    50 1   
    51    18    51 1   
    52    18    52 1   
    53    21    53 1   
@<TRIPOS>SUBSTRUCTURE
     1 11O         1 TEMP              0 ****  ****    0 ROOT
