@<TRIPOS>MOLECULE
11P
   28    29     1     0     0
SMALL
bcc


@<TRIPOS>ATOM
      1 O5           0.1810    -0.6120    -0.2360 o          1 11P      -0.966667
      2 O6           2.3460    -1.6300    -0.9190 o          1 11P      -0.966667
      3 O7           1.9200     0.8170    -1.3410 o          1 11P      -0.966667
      4 O8           4.9320     1.1990     1.2640 o          1 11P      -0.966667
      5 P4           1.6660    -0.3600    -0.4280 p5         1 11P       1.231200
      6 C1           2.3500    -0.0510     1.3980 c3         1 11P      -0.122600
      7 O2           1.5980     1.1230     1.5970 oh         1 11P      -0.634800
      8 P1           4.0180     0.3850     2.1520 p5         1 11P       1.231200
      9 O10          3.5640     1.2020     3.3690 o          1 11P      -0.966667
     10 O9           4.6770    -0.9050     2.6230 o          1 11P      -0.966667
     11 C3           1.8960    -1.1400     2.3710 c3         1 11P       0.021600
     12 C16          2.2240    -2.6050     1.9730 c3         1 11P      -0.126400
     13 C17          1.0950    -3.5060     2.4910 c3         1 11P      -0.014100
     14 C23          0.0460    -2.5700     2.9870 ca         1 11P      -0.110300
     15 C26         -1.1890    -2.8450     3.5550 ca         1 11P      -0.265300
     16 C29         -1.9900    -1.7510     3.9360 ca         1 11P       0.265200
     17 N25         -1.6440    -0.4590     3.7450 nb         1 11P      -0.735000
     18 C28         -0.4420    -0.2080     3.1880 ca         1 11P       0.395200
     19 C27          0.4710    -1.2210     2.8190 ca         1 11P       0.008400
     20 HO2          1.9330     1.5770     2.3930 ho         1 11P       0.362000
     21 H3           2.4490    -0.9270     3.3500 hc         1 11P       0.062700
     22 H161         3.2120    -2.9010     2.3950 hc         1 11P       0.107200
     23 H162         2.2790    -2.6150     0.8390 hc         1 11P       0.107200
     24 H171         1.4410    -4.1830     3.3170 hc         1 11P      -0.014800
     25 H172         0.6920    -4.1580     1.6760 hc         1 11P      -0.014800
     26 H26         -1.5450    -3.8710     3.7000 ha         1 11P       0.062000
     27 H29         -2.9730    -1.9200     4.4040 h4         1 11P      -0.073900
     28 H28         -0.1740     0.8440     2.9630 h4         1 11P       0.060100
@<TRIPOS>BOND
     1     1     5 1   
     2     2     5 1   
     3     3     5 1   
     4     4     8 1   
     5     5     6 1   
     6     6     7 1   
     7     6     8 1   
     8     6    11 1   
     9     7    20 1   
    10     8     9 1   
    11     8    10 1   
    12    11    12 1   
    13    11    19 1   
    14    11    21 1   
    15    12    13 1   
    16    12    22 1   
    17    12    23 1   
    18    13    14 1   
    19    13    24 1   
    20    13    25 1   
    21    14    15 ar  
    22    14    19 ar  
    23    15    16 ar  
    24    15    26 1   
    25    16    17 ar  
    26    16    27 1   
    27    17    18 ar  
    28    18    19 ar  
    29    18    28 1   
@<TRIPOS>SUBSTRUCTURE
     1 11P         1 TEMP              0 ****  ****    0 ROOT
