@<TRIPOS>MOLECULE
molecule
   28    29     1     0     0
SMALL
bcc


@<TRIPOS>ATOM
      1 O5           0.0000     0.0000     0.0000 o          1 11P      -0.928500
      2 O6           2.1040    -1.2080    -0.6980 o          1 11P      -0.928500
      3 O7           2.1470     1.3150    -0.7590 o          1 11P      -0.928500
      4 O8           2.1280    -2.8050     1.6660 o          1 11P      -0.928500
      5 P4           1.6100     0.0000     0.0000 p5         1 11P       1.106700
      6 C1           2.2180     0.0000     1.7190 c3         1 11P      -0.163600
      7 O2           1.6840     1.1280     2.4130 oh         1 11P      -0.643800
      8 P1           1.6880    -1.5330     2.5510 p5         1 11P       1.106700
      9 O10          0.2150    -1.5260     2.7060 o          1 11P      -0.928500
     10 O9           2.3790    -1.6240     4.0010 o          1 11P      -0.928500
     11 C3           3.7460     0.0770     1.7190 c3         1 11P       0.033600
     12 C16          4.3460    -1.1650     1.0260 c3         1 11P      -0.107400
     13 C17          5.6350    -1.4100     1.8400 c3         1 11P      -0.043100
     14 C23          5.3600    -0.8210     3.2030 ca         1 11P      -0.094300
     15 C26          5.9900    -0.9990     4.4250 ca         1 11P      -0.266300
     16 C29          5.5140    -0.3190     5.5310 ca         1 11P       0.320200
     17 N25          4.4770     0.4880     5.4310 nb         1 11P      -0.761000
     18 C28          3.8540     0.6810     4.2840 ca         1 11P       0.491200
     19 C27          4.2730     0.0350     3.1360 ca         1 11P      -0.050600
     20 HO2          0.8710     1.3880     2.0120 ho         1 11P       0.385000
     21 H3           4.0820     0.9800     1.2230 hc         1 11P       0.022700
     22 H161         3.6750    -2.0090     1.1300 hc         1 11P       0.118700
     23 H162         4.5950    -0.9330    -0.0020 hc         1 11P       0.118700
     24 H171         5.8090    -2.4750     1.9320 hc         1 11P      -0.009800
     25 H172         6.4620    -0.8840     1.3770 hc         1 11P      -0.009800
     26 H26          6.8420    -1.6610     4.5130 ha         1 11P       0.052000
     27 H29          6.0000    -0.4520     6.4900 h4         1 11P      -0.071900
     28 H28          3.0050     1.3520     4.2420 h4         1 11P       0.038100
@<TRIPOS>BOND
     1    13    12 1   
     2    13    14 1   
     3    12    11 1   
     4     9     8 1   
     5    10     8 1   
     6    14    15 ar  
     7    14    19 ar  
     8    11    19 1   
     9    11     6 1   
    10     8     6 1   
    11     8     4 1   
    12    15    16 ar  
    13    19    18 ar  
    14     6     7 1   
    15     6     5 1   
    16     2     5 1   
    17    16    17 ar  
    18    18    17 ar  
    19     5     1 1   
    20     5     3 1   
    21     7    20 1   
    22    11    21 1   
    23    12    22 1   
    24    12    23 1   
    25    13    24 1   
    26    13    25 1   
    27    15    26 1   
    28    16    27 1   
    29    18    28 1   
@<TRIPOS>SUBSTRUCTURE
     1 11P         1 TEMP              0 ****  ****    0 ROOT
