@<TRIPOS>MOLECULE
11P
   28    29     1     0     0
SMALL
bcc


@<TRIPOS>ATOM
      1 O5          0.1050   -0.6080   -0.7230 o         1 11P     -1.241333
      2 O6          2.5360   -0.8960   -1.3230 o         1 11P     -1.241333
      3 O7          1.6690    1.3620   -0.6730 o         1 11P     -1.241333
      4 O8          1.5870   -2.9690    2.2050 o         1 11P     -0.922000
      5 P4          1.5120   -0.1310   -0.5370 p3        1 11P      2.590000
      6 C1          2.0230   -0.3490    1.6330 c2        1 11P     -1.147000
      7 O2          1.1850    0.7740    1.8710 oh        1 11P     -0.360000
      8 P1          1.5100   -1.5560    2.6960 p5        1 11P      2.045000
      9 O10         0.2950   -1.2970    3.5340 o         1 11P     -0.922000
     10 O9          2.7730   -1.4840    3.8270 os        1 11P     -0.736000
     11 C3          3.4600   -0.0300    2.0460 c3        1 11P     -0.087000
     12 C16         4.5260   -0.6560    1.1290 c3        1 11P     -0.156000
     13 C17         5.3420   -1.6460    1.9640 c3        1 11P     -0.079000
     14 C23         5.1560   -1.1920    3.3620 c2        1 11P     -0.268000
     15 C26         6.1120   -1.0510    4.3180 c2        1 11P     -0.090000
     16 C29         5.9010   -0.1820    5.4210 c2        1 11P     -0.490000
     17 N25         4.7990    0.6300    5.4820 n2        1 11P     -0.172000
     18 C28         3.8640    0.5010    4.5720 c2        1 11P     -0.245000
     19 C27         3.7740   -0.5660    3.4940 c3        1 11P      0.211000
     20 HO2         1.5020    1.4940    1.3050 ho        1 11P      0.182000
     21 H3          3.6100    1.0840    2.0500 hc        1 11P      0.044000
     22 H161        5.2070    0.1430    0.7370 hc        1 11P      0.076000
     23 H162        4.0190   -1.1380    0.2480 hc        1 11P      0.076000
     24 H171        4.9470   -2.6850    1.8190 hc        1 11P      0.019000
     25 H172        6.4220   -1.6540    1.6530 hc        1 11P      0.019000
     26 H26         7.0990   -1.5320    4.2090 ha        1 11P      0.009000
     27 H29         6.6160   -0.1070    6.2450 h4        1 11P      0.038000
     28 H28         3.0130    1.1980    4.6220 h4        1 11P      0.091000
@<TRIPOS>BOND
     1    1    5 1   
     2    2    5 1   
     3    3    5 1   
     4    4    8 1   
     5    6    7 1   
     6    6    8 1   
     7    6   11 1   
     8    7   20 1   
     9    8    9 1   
    10    8   10 1   
    11   10   19 1   
    12   11   12 1   
    13   11   19 1   
    14   11   21 1   
    15   12   13 1   
    16   12   22 1   
    17   12   23 1   
    18   13   14 1   
    19   13   24 1   
    20   13   25 1   
    21   14   15 1   
    22   14   19 1   
    23   15   16 1   
    24   15   26 1   
    25   16   17 1   
    26   16   27 1   
    27   17   18 1   
    28   18   19 1   
    29   18   28 1   
@<TRIPOS>SUBSTRUCTURE
     1 11P         1 TEMP              0 ****  ****    0 ROOT
