@<TRIPOS>MOLECULE
11S
   16    17     1     0     0
SMALL
bcc


@<TRIPOS>ATOM
      1 C8           0.0330    -0.0420     0.0090 cc         1 11S      -0.104100
      2 C9           1.4250    -0.0290    -0.0140 cd         1 11S      -0.185200
      3 C1           0.7660     0.0160     3.5810 ca         1 11S      -0.137000
      4 C2           2.0270     0.0370     4.1540 ca         1 11S      -0.107000
      5 C3           3.1890     0.0370     3.3550 ca         1 11S      -0.010600
      6 C4           3.1290     0.0160     1.9660 ca         1 11S      -0.075000
      7 C5           1.8730    -0.0050     1.3590 ca         1 11S      -0.090800
      8 C6           0.6800    -0.0050     2.1800 ca         1 11S      -0.048200
      9 Cl10         4.7080     0.0630     4.1260 cl         1 11S      -0.106400
     10 N7          -0.4270    -0.0280     1.3300 na         1 11S      -0.193400
     11 H8          -0.6750    -0.0610    -0.8220 h4         1 11S       0.166000
     12 H9           2.0640    -0.0350    -0.8920 ha         1 11S       0.160000
     13 H1          -0.1370     0.0160     4.2060 ha         1 11S       0.137000
     14 H2           2.1260     0.0530     5.2500 ha         1 11S       0.145000
     15 H4           4.0420     0.0160     1.3530 ha         1 11S       0.149000
     16 HN7         -1.3680    -0.0330     1.6160 hn         1 11S       0.299700
@<TRIPOS>BOND
     1     1     2 2   
     2     1    10 1   
     3     1    11 1   
     4     2     7 1   
     5     2    12 1   
     6     3     4 ar  
     7     3     8 ar  
     8     3    13 1   
     9     4     5 ar  
    10     4    14 1   
    11     5     6 ar  
    12     5     9 1   
    13     6     7 ar  
    14     6    15 1   
    15     7     8 ar  
    16     8    10 1   
    17    10    16 1   
@<TRIPOS>SUBSTRUCTURE
     1 11S         1 TEMP              0 ****  ****    0 ROOT
