@<TRIPOS>MOLECULE
11S
   16    17     1     0     0
SMALL
bcc


@<TRIPOS>ATOM
      1 C8         -0.0060    0.0000   -0.0150 cc        1 11S     -0.104100
      2 C9          1.3860   -0.0000   -0.0100 cd        1 11S     -0.185200
      3 C1          0.6570    0.0010    3.5720 ca        1 11S     -0.137000
      4 C2          1.9060    0.0010    4.1700 ca        1 11S     -0.107000
      5 C3          3.0830    0.0010    3.3930 ca        1 11S     -0.010600
      6 C4          3.0500    0.0000    2.0030 ca        1 11S     -0.075000
      7 C5          1.8070    0.0000    1.3720 ca        1 11S     -0.090800
      8 C6          0.5980    0.0010    2.1690 ca        1 11S     -0.048200
      9 CL10        4.5880    0.0010    4.1940 cl        1 11S     -0.106400
     10 N7         -0.4920    0.0010    1.2970 na        1 11S     -0.193400
     11 H8         -0.6980    0.0000   -0.8590 h4        1 11S      0.166000
     12 H9          2.0420   -0.0010   -0.8750 ha        1 11S      0.160000
     13 H1         -0.2590    0.0020    4.1780 ha        1 11S      0.137000
     14 H2          1.9840    0.0020    5.2680 ha        1 11S      0.145000
     15 H4          3.9750   -0.0000    1.4090 ha        1 11S      0.149000
     16 HN7        -1.4390    0.0010    1.5650 hn        1 11S      0.299700
@<TRIPOS>BOND
     1    1    2 2   
     2    1   10 1   
     3    1   11 1   
     4    2    7 1   
     5    2   12 1   
     6    3    4 ar  
     7    3    8 ar  
     8    3   13 1   
     9    4    5 ar  
    10    4   14 1   
    11    5    6 ar  
    12    5    9 1   
    13    6    7 ar  
    14    6   15 1   
    15    7    8 ar  
    16    8   10 1   
    17   10   16 1   
@<TRIPOS>SUBSTRUCTURE
     1 11S         1 TEMP              0 ****  ****    0 ROOT
