@<TRIPOS>MOLECULE
molecule
   16    17     1     0     0
SMALL
bcc


@<TRIPOS>ATOM
      1 C8           0.0000     0.0000     0.0000 cc         1 11S      -0.099100
      2 C9           1.3420     0.0000     0.0000 cd         1 11S      -0.195200
      3 C1           0.6810    -0.0000     3.5560 ca         1 11S      -0.135000
      4 C2           1.9190    -0.0000     4.1610 ca         1 11S      -0.103000
      5 C3           3.0800     0.0010     3.4000 ca         1 11S       0.001400
      6 C4           3.0140     0.0010     2.0340 ca         1 11S      -0.071000
      7 C5           1.7710     0.0000     1.4010 ca         1 11S      -0.098800
      8 C6           0.5910     0.0000     2.1680 ca         1 11S      -0.040200
      9 Cl10         4.6280     0.0020     4.1880 cl         1 11S      -0.117400
     10 N7          -0.4660     0.0050     1.2860 na         1 11S      -0.181400
     11 H8          -0.6220    -0.0030    -0.8870 h4         1 11S       0.167000
     12 H9           1.9860    -0.0030    -0.8710 ha         1 11S       0.157000
     13 H1          -0.2190    -0.0010     4.1590 ha         1 11S       0.131000
     14 H2           1.9860    -0.0000     5.2430 ha         1 11S       0.144000
     15 H4           3.9240     0.0020     1.4460 ha         1 11S       0.145000
     16 HN7         -1.4320     0.0060     1.5470 hn         1 11S       0.296700
@<TRIPOS>BOND
     1    10     1 1   
     2     1     2 2   
     3     1    11 1   
     4     2     7 1   
     5     2    12 1   
     6     8     3 ar  
     7     3     4 ar  
     8     3    13 1   
     9     4     5 ar  
    10     4    14 1   
    11     6     5 ar  
    12     5     9 1   
    13     7     6 ar  
    14     6    15 1   
    15     8     7 ar  
    16    10     8 1   
    17    10    16 1   
@<TRIPOS>SUBSTRUCTURE
     1 11S         1 TEMP              0 ****  ****    0 ROOT
