@<TRIPOS>MOLECULE
molecule
   61    65     1     0     0
SMALL
bcc


@<TRIPOS>ATOM
      1 CAP          0.0000     0.0000     0.0000 c3         1 11V       0.120800
      2 CAM          1.5310     0.0000     0.0000 c3         1 11V       0.139400
      3 OAX          2.0030     0.0000     1.3510 os         1 11V      -0.425600
      4 CAN          1.5500    -1.1180     2.1180 c3         1 11V       0.139400
      5 CAQ          0.0190    -1.1290     2.1390 c3         1 11V       0.120800
      6 NBG         -0.4840    -1.1620     0.7580 n3         1 11V      -0.726600
      7 CAR         -1.9520    -1.2310     0.7360 c3         1 11V       0.170800
      8 CAO         -2.4090    -2.5730     1.3140 c3         1 11V      -0.014300
      9 SAY         -4.2160    -2.6580     1.2840 ss         1 11V      -0.246400
     10 C2          -4.4580    -4.2560     1.9860 ca         1 11V       0.867300
     11 N1          -3.3930    -4.9670     2.3410 nb         1 11V      -0.850000
     12 C6          -3.5220    -6.1760     2.8740 ca         1 11V       0.797200
     13 NAW         -2.4100    -6.9080     3.2410 nu         1 11V      -0.755300
     14 CAZ         -1.1300    -6.4290     2.9460 ca         1 11V       0.148600
     15 CAH         -0.0720    -6.6910     3.8090 ca         1 11V      -0.146000
     16 CAD          1.1910    -6.2180     3.5150 ca         1 11V      -0.111500
     17 CAB          1.4040    -5.4840     2.3620 ca         1 11V      -0.148000
     18 CAE          0.3550    -5.2220     1.5010 ca         1 11V      -0.111500
     19 CAI         -0.9100    -5.6960     1.7870 ca         1 11V      -0.146000
     20 N3          -5.6940    -4.7020     2.1440 nb         1 11V      -0.777000
     21 C4          -5.9190    -5.9040     2.6700 ca         1 11V       0.555800
     22 C5          -4.8190    -6.6950     3.0570 ca         1 11V      -0.560500
     23 CAL         -5.3390    -7.9000     3.5750 cc         1 11V       0.407800
     24 NAT         -6.6390    -7.8510     3.5110 nd         1 11V      -0.509100
     25 NBH         -7.0380    -6.6280     2.9560 na         1 11V      -0.030800
     26 CAS         -8.4200    -6.2010     2.7220 c3         1 11V       0.084300
     27 CBF         -8.8590    -6.6370     1.3230 c3         1 11V       0.081000
     28 ClA         -7.8750    -5.7670     0.0860 cl         1 11V      -0.171400
     29 CBA        -10.3170    -6.3070     1.1280 ca         1 11V      -0.108300
     30 CAJ        -11.2390    -7.3230     0.9600 ca         1 11V      -0.108500
     31 CAF        -12.5750    -7.0200     0.7820 ca         1 11V      -0.128000
     32 CAC        -12.9900    -5.7010     0.7700 ca         1 11V      -0.118000
     33 CAG        -12.0680    -4.6850     0.9390 ca         1 11V      -0.128000
     34 CAK        -10.7320    -4.9890     1.1230 ca         1 11V      -0.108500
     35 H1          -0.3610     0.9100     0.4650 h1         1 11V       0.045950
     36 H2          -0.3610    -0.0590    -1.0200 h1         1 11V       0.045950
     37 H3           1.8920     0.8860    -0.5080 h1         1 11V       0.053450
     38 H4           1.8920    -0.8860    -0.5080 h1         1 11V       0.053450
     39 H5           1.9120    -2.0340     1.6680 h1         1 11V       0.053450
     40 H6           1.9240    -1.0340     3.1320 h1         1 11V       0.053450
     41 H7          -0.3280    -2.0080     2.6700 h1         1 11V       0.045950
     42 H8          -0.3420    -0.2350     2.6330 h1         1 11V       0.045950
     43 H10         -2.3020    -1.1400    -0.2850 h1         1 11V       0.044200
     44 H11         -2.3610    -0.4240     1.3310 h1         1 11V       0.044200
     45 H12         -1.9990    -3.3800     0.7190 h1         1 11V       0.084700
     46 H13         -2.0590    -2.6630     2.3350 h1         1 11V       0.084700
     47 H14         -2.5210    -7.7950     3.6920 hn         1 11V       0.458800
     48 H15         -0.2390    -7.2660     4.7120 ha         1 11V       0.144000
     49 H16          2.0160    -6.4210     4.1880 ha         1 11V       0.135500
     50 H17          2.3960    -5.1120     2.1340 ha         1 11V       0.130000
     51 H18          0.5270    -4.6480     0.5980 ha         1 11V       0.135500
     52 H19         -1.7310    -5.4900     1.1110 ha         1 11V       0.144000
     53 H20         -4.7550    -8.7280     3.9610 h4         1 11V       0.053800
     54 H21         -9.0680    -6.6550     3.4620 h1         1 11V       0.085700
     55 H22         -8.4820    -5.1220     2.8010 h1         1 11V       0.085700
     56 H23         -8.7130    -7.7050     1.2140 h1         1 11V       0.089700
     57 H24        -10.9140    -8.3560     0.9690 ha         1 11V       0.138000
     58 H25        -13.2980    -7.8160     0.6500 ha         1 11V       0.133500
     59 H26        -14.0370    -5.4640     0.6280 ha         1 11V       0.132000
     60 H27        -12.3930    -3.6520     0.9330 ha         1 11V       0.133500
     61 H28        -10.0090    -4.1930     1.2560 ha         1 11V       0.138000
@<TRIPOS>BOND
     1     3     4 1
     2     3     2 1
     3     4     5 1
     4     5     6 1
     5    32    33 ar
     6    32    31 ar
     7    33    34 ar
     8    31    30 ar
     9     2     1 1
    10     1     6 1
    11     6     7 1
    12    34    29 ar
    13     7     8 1
    14    30    29 ar
    15    29    27 1
    16    26    27 1
    17    26    25 1
    18    27    28 1
    19     8     9 1
    20    25    21 1
    21    25    24 1
    22    20    21 ar
    23    20    10 ar
    24     9    10 1
    25    21    22 ar
    26    10    11 ar
    27    24    23 2
    28    22    23 1
    29    22    12 ar
    30    11    12 ar
    31    12    13 1
    32    13    14 1
    33    15    14 ar
    34    15    16 ar
    35    14    19 ar
    36    16    17 ar
    37    19    18 ar
    38    17    18 ar
    39     1    35 1
    40     1    36 1
    41     2    37 1
    42     2    38 1
    43     4    39 1
    44     4    40 1
    45     5    41 1
    46     5    42 1
    47     7    43 1
    48     7    44 1
    49     8    45 1
    50     8    46 1
    51    13    47 1
    52    15    48 1
    53    16    49 1
    54    17    50 1
    55    18    51 1
    56    19    52 1
    57    23    53 1
    58    26    54 1
    59    26    55 1
    60    27    56 1
    61    30    57 1
    62    31    58 1
    63    32    59 1
    64    33    60 1
    65    34    61 1
@<TRIPOS>SUBSTRUCTURE
     1 11V         1 TEMP              0 ****  ****    0 ROOT
