@<TRIPOS>MOLECULE
11V
   61    65     1     0     0
SMALL
bcc


@<TRIPOS>ATOM
      1 CAP          0.0860    -0.2380    -0.1990 c3         1 11V       0.129800
      2 CAM          1.3870     0.4020     0.2980 c3         1 11V       0.125400
      3 OAX          1.2700     0.8620     1.6390 os         1 11V      -0.416600
      4 CAN          0.8690    -0.1750     2.5260 c3         1 11V       0.125400
      5 CAQ         -0.4470    -0.8230     2.0830 c3         1 11V       0.129800
      6 NBG         -0.4090    -1.2770     0.6960 n3         1 11V      -0.724600
      7 CAR         -1.7010    -1.8100     0.2730 c3         1 11V       0.172800
      8 CAO         -1.6070    -2.6770    -0.9760 c3         1 11V      -0.045300
      9 SAY         -3.1590    -3.3600    -1.4520 ss         1 11V      -0.193400
     10 C2          -3.9750    -2.1420    -2.3730 ca         1 11V       0.789300
     11 N1          -5.1270    -2.5960    -2.9710 nb         1 11V      -0.764000
     12 C6          -5.8460    -1.7140    -3.7280 ca         1 11V       0.763200
     13 NAW         -7.0570    -2.0610    -4.3200 nu         1 11V      -0.723300
     14 CAZ         -7.5560    -3.3810    -4.4000 ca         1 11V       0.132600
     15 CAH         -7.6650    -4.2020    -3.2590 ca         1 11V      -0.139000
     16 CAD         -8.2230    -5.4730    -3.3710 ca         1 11V      -0.114500
     17 CAB         -8.6880    -5.9440    -4.5960 ca         1 11V      -0.140000
     18 CAE         -8.5940    -5.1340    -5.7270 ca         1 11V      -0.114500
     19 CAI         -8.0310    -3.8650    -5.6410 ca         1 11V      -0.139000
     20 N3          -3.4290    -0.8950    -2.4320 nb         1 11V      -0.759000
     21 C4          -4.1430    -0.0230    -3.1990 ca         1 11V       0.499800
     22 C5          -5.3720    -0.3770    -3.8890 ca         1 11V      -0.511500
     23 CAL         -5.7690     0.8400    -4.5620 cc         1 11V       0.391800
     24 NAT         -4.8850     1.8220    -4.3060 nd         1 11V      -0.519100
     25 NBH         -3.9300     1.3460    -3.4700 na         1 11V      -0.011800
     26 CAS         -2.7480     2.0920    -3.0970 c3         1 11V       0.062300
     27 CBF         -1.7390     2.3140    -4.2350 c3         1 11V       0.077000
     28 ClA         -1.1130     0.7710    -4.8300 cl         1 11V      -0.178400
     29 CBA         -0.6240     3.1840    -3.7600 ca         1 11V      -0.105300
     30 CAJ         -0.3890     4.4070    -4.3990 ca         1 11V      -0.110500
     31 CAF          0.6410     5.2390    -3.9630 ca         1 11V      -0.130000
     32 CAC          1.4440     4.8560    -2.8890 ca         1 11V      -0.116000
     33 CAG          1.2160     3.6360    -2.2530 ca         1 11V      -0.130000
     34 CAK          0.1890     2.8000    -2.6870 ca         1 11V      -0.110500
     35 H1          -0.6790     0.5790    -0.3510 h1         1 11V       0.041700
     36 H2           0.2870    -0.7100    -1.2000 h1         1 11V       0.041700
     37 H3           2.2400    -0.3220     0.2230 h1         1 11V       0.053200
     38 H4           1.6110     1.3260    -0.2980 h1         1 11V       0.053200
     39 H5           0.7320     0.3390     3.5140 h1         1 11V       0.053200
     40 H6           1.6840    -0.9420     2.6000 h1         1 11V       0.053200
     41 H7          -1.2840    -0.0850     2.2560 h1         1 11V       0.041700
     42 H8          -0.6370    -1.7220     2.7330 h1         1 11V       0.041700
     43 H10         -2.1020    -2.4480     1.1130 h1         1 11V       0.047700
     44 H11         -2.4460    -0.9820     0.0910 h1         1 11V       0.047700
     45 H12         -1.1290    -2.1190    -1.8180 h1         1 11V       0.093200
     46 H13         -0.9790    -3.5830    -0.7680 h1         1 11V       0.093200
     47 H14         -7.3370    -1.4560    -5.0640 hn         1 11V       0.435800
     48 H15         -7.3110    -3.8530    -2.2770 ha         1 11V       0.143500
     49 H16         -8.2960    -6.1090    -2.4750 ha         1 11V       0.134500
     50 H17         -9.1280    -6.9490    -4.6730 ha         1 11V       0.134000
     51 H18         -8.9600    -5.4990    -6.6980 ha         1 11V       0.134500
     52 H19         -7.9610    -3.2450    -6.5470 ha         1 11V       0.143500
     53 H20         -6.6470     1.0010    -5.1890 h4         1 11V       0.052800
     54 H21         -2.2500     1.5420    -2.2480 h1         1 11V       0.087200
     55 H22         -3.0750     3.1100    -2.7310 h1         1 11V       0.087200
     56 H23         -2.2500     2.7760    -5.1210 h1         1 11V       0.094700
     57 H24         -1.0170     4.7140    -5.2500 ha         1 11V       0.138000
     58 H25          0.8200     6.1990    -4.4700 ha         1 11V       0.137000
     59 H26          2.2560     5.5140    -2.5450 ha         1 11V       0.136000
     60 H27          1.8490     3.3300    -1.4060 ha         1 11V       0.137000
     61 H28          0.0230     1.8310    -2.1890 ha         1 11V       0.138000
@<TRIPOS>BOND
     1     1     2 1   
     2     1     6 1   
     3     1    35 1   
     4     1    36 1   
     5     2     3 1   
     6     2    37 1   
     7     2    38 1   
     8     3     4 1   
     9     4     5 1   
    10     4    39 1   
    11     4    40 1   
    12     5     6 1   
    13     5    41 1   
    14     5    42 1   
    15     6     7 1   
    16     7     8 1   
    17     7    43 1   
    18     7    44 1   
    19     8     9 1   
    20     8    45 1   
    21     8    46 1   
    22     9    10 1   
    23    10    11 ar  
    24    10    20 ar  
    25    11    12 ar  
    26    12    13 1   
    27    12    22 ar  
    28    13    14 1   
    29    13    47 1   
    30    14    15 ar  
    31    14    19 ar  
    32    15    16 ar  
    33    15    48 1   
    34    16    17 ar  
    35    16    49 1   
    36    17    18 ar  
    37    17    50 1   
    38    18    19 ar  
    39    18    51 1   
    40    19    52 1   
    41    20    21 ar  
    42    21    22 ar  
    43    21    25 1   
    44    22    23 1   
    45    23    24 2   
    46    23    53 1   
    47    24    25 1   
    48    25    26 1   
    49    26    27 1   
    50    26    54 1   
    51    26    55 1   
    52    27    28 1   
    53    27    29 1   
    54    27    56 1   
    55    29    30 ar  
    56    29    34 ar  
    57    30    31 ar  
    58    30    57 1   
    59    31    32 ar  
    60    31    58 1   
    61    32    33 ar  
    62    32    59 1   
    63    33    34 ar  
    64    33    60 1   
    65    34    61 1   
@<TRIPOS>SUBSTRUCTURE
     1 11V         1 TEMP              0 ****  ****    0 ROOT
