@<TRIPOS>MOLECULE
11V
   61    65     1     0     0
SMALL
bcc


@<TRIPOS>ATOM
      1 CAP          0.0000     0.0000     0.0000 c3         1 11V       0.105800
      2 CAM          1.5310     0.0000     0.0000 c3         1 11V       0.214400
      3 OAX          2.0030     0.0000     1.3510 os         1 11V      -0.411600
      4 CAN          1.5500    -1.1180     2.1180 c3         1 11V       0.214400
      5 CAQ          0.0190    -1.1290     2.1390 c3         1 11V       0.105800
      6 NBG         -0.4840    -1.1620     0.7580 n3         1 11V      -0.539600
      7 CAR         -1.9520    -1.2310     0.7360 c3         1 11V       0.169800
      8 CAO         -2.4090    -2.5730     1.3140 c3         1 11V       0.062700
      9 SAY         -4.2160    -2.6580     1.2840 ss         1 11V      -0.382400
     10 C2          -4.4580    -4.2560     1.9860 ca         1 11V       0.823300
     11 N1          -3.3930    -4.9670     2.3410 nb         1 11V      -0.759000
     12 C6          -3.5220    -6.1760     2.8740 ca         1 11V       0.616200
     13 NAW         -2.4100    -6.9080     3.2410 nu         1 11V      -0.274300
     14 CAZ         -1.1300    -6.4290     2.9460 ca         1 11V      -0.014400
     15 CAH         -0.0720    -6.6910     3.8090 ca         1 11V      -0.121000
     16 CAD          1.1910    -6.2180     3.5150 ca         1 11V      -0.082500
     17 CAB          1.4040    -5.4840     2.3620 ca         1 11V      -0.115000
     18 CAE          0.3550    -5.2220     1.5010 ca         1 11V      -0.082500
     19 CAI         -0.9100    -5.6960     1.7870 ca         1 11V      -0.121000
     20 N3          -5.6940    -4.7020     2.1440 nb         1 11V      -0.650000
     21 C4          -5.9190    -5.9040     2.6700 ca         1 11V       0.359800
     22 C5          -4.8190    -6.6950     3.0570 ca         1 11V      -0.577500
     23 CAL         -5.3390    -7.9000     3.5750 cc         1 11V       0.474800
     24 NAT         -6.6390    -7.8510     3.5110 nd         1 11V      -0.640100
     25 NBH         -7.0380    -6.6280     2.9560 na         1 11V       0.379200
     26 CAS         -8.4200    -6.2010     2.7220 c3         1 11V      -0.013700
     27 CBF         -8.8590    -6.6370     1.3230 c3         1 11V       0.076000
     28 ClA         -7.8750    -5.7670     0.0860 cl         1 11V      -0.100400
     29 CBA        -10.3170    -6.3070     1.1280 ca         1 11V      -0.120300
     30 CAJ        -11.2390    -7.3230     0.9600 ca         1 11V      -0.081000
     31 CAF        -12.5750    -7.0200     0.7820 ca         1 11V      -0.099500
     32 CAC        -12.9900    -5.7010     0.7700 ca         1 11V      -0.091000
     33 CAG        -12.0680    -4.6850     0.9390 ca         1 11V      -0.099500
     34 CAK        -10.7320    -4.9890     1.1230 ca         1 11V      -0.081000
     35 H1          -0.3610     0.9100     0.4650 h1         1 11V       0.020950
     36 H2          -0.3610    -0.0590    -1.0200 h1         1 11V       0.020950
     37 H3           1.8920     0.8860    -0.5080 h1         1 11V       0.012450
     38 H4           1.8920    -0.8860    -0.5080 h1         1 11V       0.012450
     39 H5           1.9120    -2.0340     1.6680 h1         1 11V       0.012450
     40 H6           1.9240    -1.0340     3.1320 h1         1 11V       0.012450
     41 H7          -0.3280    -2.0080     2.6700 h1         1 11V       0.020950
     42 H8          -0.3420    -0.2350     2.6330 h1         1 11V       0.020950
     43 H10         -2.3020    -1.1400    -0.2850 h1         1 11V       0.020700
     44 H11         -2.3610    -0.4240     1.3310 h1         1 11V       0.020700
     45 H12         -1.9990    -3.3800     0.7190 h1         1 11V       0.060200
     46 H13         -2.0590    -2.6630     2.3350 h1         1 11V       0.060200
     47 H14         -2.5210    -7.7950     3.6920 hn         1 11V       0.288800
     48 H15         -0.2390    -7.2660     4.7120 ha         1 11V       0.122500
     49 H16          2.0160    -6.4210     4.1880 ha         1 11V       0.107000
     50 H17          2.3960    -5.1120     2.1340 ha         1 11V       0.104000
     51 H18          0.5270    -4.6480     0.5980 ha         1 11V       0.107000
     52 H19         -1.7310    -5.4900     1.1110 ha         1 11V       0.122500
     53 H20         -4.7550    -8.7280     3.9610 h4         1 11V       0.007800
     54 H21         -9.0680    -6.6550     3.4620 h1         1 11V       0.054200
     55 H22         -8.4820    -5.1220     2.8010 h1         1 11V       0.054200
     56 H23         -8.7130    -7.7050     1.2140 h1         1 11V       0.050700
     57 H24        -10.9140    -8.3560     0.9690 ha         1 11V       0.112000
     58 H25        -13.2980    -7.8160     0.6500 ha         1 11V       0.105500
     59 H26        -14.0370    -5.4640     0.6280 ha         1 11V       0.103000
     60 H27        -12.3930    -3.6520     0.9330 ha         1 11V       0.105500
     61 H28        -10.0090    -4.1930     1.2560 ha         1 11V       0.112000
@<TRIPOS>BOND
     1     1     2 1   
     2     1     6 1   
     3     1    35 1   
     4     1    36 1   
     5     2     3 1   
     6     2    37 1   
     7     2    38 1   
     8     3     4 1   
     9     4     5 1   
    10     4    39 1   
    11     4    40 1   
    12     5     6 1   
    13     5    41 1   
    14     5    42 1   
    15     6     7 1   
    16     7     8 1   
    17     7    43 1   
    18     7    44 1   
    19     8     9 1   
    20     8    45 1   
    21     8    46 1   
    22     9    10 1   
    23    10    11 ar  
    24    10    20 ar  
    25    11    12 ar  
    26    12    13 1   
    27    12    22 ar  
    28    13    14 1   
    29    13    47 1   
    30    14    15 ar  
    31    14    19 ar  
    32    15    16 ar  
    33    15    48 1   
    34    16    17 ar  
    35    16    49 1   
    36    17    18 ar  
    37    17    50 1   
    38    18    19 ar  
    39    18    51 1   
    40    19    52 1   
    41    20    21 ar  
    42    21    22 ar  
    43    21    25 1   
    44    22    23 1   
    45    23    24 2   
    46    23    53 1   
    47    24    25 1   
    48    25    26 1   
    49    26    27 1   
    50    26    54 1   
    51    26    55 1   
    52    27    28 1   
    53    27    29 1   
    54    27    56 1   
    55    29    30 ar  
    56    29    34 ar  
    57    30    31 ar  
    58    30    57 1   
    59    31    32 ar  
    60    31    58 1   
    61    32    33 ar  
    62    32    59 1   
    63    33    34 ar  
    64    33    60 1   
    65    34    61 1   
@<TRIPOS>SUBSTRUCTURE
     1 11V         1 TEMP              0 ****  ****    0 ROOT
