@<TRIPOS>MOLECULE
molecule
   26    27     1     0     0
SMALL
bcc


@<TRIPOS>ATOM
      1 N1           0.0000     0.0000     0.0000 nb         1 11X      -0.690000
      2 C10          5.8610     2.9420     1.1640 ca         1 11X      -0.208000
      3 C11          7.2190     3.1900     1.1560 ca         1 11X      -0.082000
      4 C9           5.3960     1.6340     1.1670 ca         1 11X       0.202600
      5 C14          6.2990     0.5780     1.1620 ca         1 11X      -0.208000
      6 C12          8.1160     2.1370     1.1510 ca         1 11X      -0.186000
      7 C13          7.6560     0.8330     1.1540 ca         1 11X      -0.082000
      8 C2           1.3190     0.0000     0.0000 ca         1 11X       0.435200
      9 C4           1.3310    -0.0000     2.3870 ca         1 11X      -0.077000
     10 C5          -0.0550     0.0010     2.3470 ca         1 11X      -0.257300
     11 C6          -0.6940     0.0010     1.1220 ca         1 11X       0.426200
     12 C3           2.0250     0.0000     1.1870 ca         1 11X      -0.240600
     13 N8           4.0220     1.3800     1.1750 nu         1 11X      -0.830600
     14 H11          7.5830     4.2110     1.1530 ha         1 11X       0.127000
     15 H14          5.9390    -0.4430     1.1650 ha         1 11X       0.128500
     16 H12          9.1810     2.3340     1.1450 ha         1 11X       0.127000
     17 H13          8.3610     0.0100     1.1500 ha         1 11X       0.127000
     18 H2           1.8540    -0.0000    -0.9420 h4         1 11X       0.029100
     19 H4           1.8590    -0.0000     3.3330 ha         1 11X       0.143000
     20 H5          -0.6300     0.0020     3.2650 ha         1 11X       0.141000
     21 H6          -1.7760     0.0020     1.0820 h4         1 11X       0.025100
     22 HN8          3.3720     2.1410     1.1730 hn         1 11X       0.441800
     23 C7           3.5320    -0.0010     1.1780 c3         1 11X       0.290100
     24 H10          5.1590     3.7670     1.1670 ha         1 11X       0.128500
     25 H7           3.8990    -0.5120     2.0600 h1         1 11X       0.045700
     26 H7A          3.8870    -0.5130     0.2910 h1         1 11X       0.045700
@<TRIPOS>BOND
     1     1     8 ar
     2     1    11 ar
     3     2     3 ar
     4     2     4 ar
     5     3     6 ar
     6     4     5 ar
     7     4    13 1
     8     5     7 ar
     9     6     7 ar
    10     8    12 ar
    11     9    10 ar
    12     9    12 ar
    13    10    11 ar
    14    23    12 1
    15    23    13 1
    16     2    24 1
    17     3    14 1
    18     5    15 1
    19     6    16 1
    20     7    17 1
    21     8    18 1
    22     9    19 1
    23    10    20 1
    24    11    21 1
    25    23    25 1
    26    23    26 1
    27    13    22 1
@<TRIPOS>SUBSTRUCTURE
     1 11X         1 TEMP              0 ****  ****    0 ROOT
