@<TRIPOS>MOLECULE
11X
   26    27     1     0     0
SMALL
bcc


@<TRIPOS>ATOM
      1 N1          -0.0430     0.3960     0.5080 nb         1 11X      -0.665000
      2 C10          5.0650     0.7410     4.1640 ca         1 11X      -0.184500
      3 C11          5.5380     0.1300     5.3190 ca         1 11X      -0.098000
      4 C9           4.8810    -0.0080     2.9750 ca         1 11X       0.134600
      5 C14          5.1760    -1.3890     3.0070 ca         1 11X      -0.184500
      6 C12          5.8290    -1.2330     5.3350 ca         1 11X      -0.167000
      7 C13          5.6450    -1.9830     4.1750 ca         1 11X      -0.098000
      8 C2           1.2840     0.4990     0.3060 ca         1 11X       0.403200
      9 C4           1.7970    -0.9470     2.1640 ca         1 11X      -0.082000
     10 C5           0.4250    -1.0620     2.3890 ca         1 11X      -0.245300
     11 C6          -0.4560    -0.3730     1.5350 ca         1 11X       0.397200
     12 C3           2.2480    -0.1520     1.1030 ca         1 11X      -0.248600
     13 N8           4.5160     0.6570     1.7880 nu         1 11X      -0.713600
     14 H11          5.6800     0.7320     6.2300 ha         1 11X       0.130500
     15 H14          5.0550    -2.0110     2.1090 ha         1 11X       0.132000
     16 H12          6.2000    -1.7110     6.2520 ha         1 11X       0.132000
     17 H13          5.8750    -3.0600     4.1770 ha         1 11X       0.130500
     18 H2           1.5900     1.1360    -0.5440 h4         1 11X       0.022100
     19 H4           2.5230    -1.4670     2.8090 ha         1 11X       0.150000
     20 H5           0.0360    -1.6750     3.2120 ha         1 11X       0.146000
     21 H6          -1.5490    -0.4370     1.6770 h4         1 11X       0.023100
     22 HN8          4.1910     1.5890     1.9660 hn         1 11X       0.391800
     23 C7           3.7090    -0.0130     0.7980 c3         1 11X       0.231100
     24 H10          4.8430     1.8190     4.1790 ha         1 11X       0.132000
     25 H7           4.1330    -1.0400     0.6050 h1         1 11X       0.065200
     26 H7A          3.8290     0.5840    -0.1550 h1         1 11X       0.065200
@<TRIPOS>BOND
     1     1     8 ar  
     2     1    11 ar  
     3     2     3 ar  
     4     2     4 ar  
     5     2    24 1   
     6     3     6 ar  
     7     3    14 1   
     8     4     5 ar  
     9     4    13 1   
    10     5     7 ar  
    11     5    15 1   
    12     6     7 ar  
    13     6    16 1   
    14     7    17 1   
    15     8    12 ar  
    16     8    18 1   
    17     9    10 ar  
    18     9    12 ar  
    19     9    19 1   
    20    10    11 ar  
    21    10    20 1   
    22    11    21 1   
    23    12    23 1   
    24    13    22 1   
    25    13    23 1   
    26    23    25 1   
    27    23    26 1   
@<TRIPOS>SUBSTRUCTURE
     1 11X         1 TEMP              0 ****  ****    0 ROOT
