@<TRIPOS>MOLECULE
11X
   26    27     1     0     0
SMALL
bcc


@<TRIPOS>ATOM
      1 N1           0.0000     0.0000     0.0000 nb         1 11X      -0.582000
      2 C10          5.8610     2.9420     1.1640 ca         1 11X      -0.190000
      3 C11          7.2190     3.1900     1.1560 ca         1 11X      -0.049500
      4 C9           5.3960     1.6340     1.1670 ca         1 11X       0.066600
      5 C14          6.2990     0.5780     1.1620 ca         1 11X      -0.190000
      6 C12          8.1160     2.1370     1.1510 ca         1 11X      -0.164000
      7 C13          7.6560     0.8330     1.1540 ca         1 11X      -0.049500
      8 C2           1.3190     0.0000     0.0000 ca         1 11X       0.421200
      9 C4           1.3310    -0.0000     2.3870 ca         1 11X      -0.052000
     10 C5          -0.0550     0.0010     2.3470 ca         1 11X      -0.223300
     11 C6          -0.6940     0.0010     1.1220 ca         1 11X       0.411200
     12 C3           2.0250     0.0000     1.1870 ca         1 11X      -0.241600
     13 N8           4.0220     1.3800     1.1750 nu         1 11X      -0.436600
     14 H11          7.5830     4.2110     1.1530 ha         1 11X       0.097000
     15 H14          5.9390    -0.4430     1.1650 ha         1 11X       0.109500
     16 H12          9.1810     2.3340     1.1450 ha         1 11X       0.103000
     17 H13          8.3610     0.0100     1.1500 ha         1 11X       0.097000
     18 H2           1.8540    -0.0000    -0.9420 h4         1 11X      -0.014900
     19 H4           1.8590    -0.0000     3.3330 ha         1 11X       0.114000
     20 H5          -0.6300     0.0020     3.2650 ha         1 11X       0.115000
     21 H6          -1.7760     0.0020     1.0820 h4         1 11X      -0.018900
     22 HN8          3.3720     2.1410     1.1730 hn         1 11X       0.296800
     23 C7           3.5320    -0.0010     1.1780 c3         1 11X       0.236100
     24 H10          5.1590     3.7670     1.1670 ha         1 11X       0.109500
     25 H7           3.8990    -0.5120     2.0600 h1         1 11X       0.017700
     26 H7A          3.8870    -0.5130     0.2910 h1         1 11X       0.017700
@<TRIPOS>BOND
     1     1     8 ar  
     2     1    11 ar  
     3     2     3 ar  
     4     2     4 ar  
     5     2    24 1   
     6     3     6 ar  
     7     3    14 1   
     8     4     5 ar  
     9     4    13 1   
    10     5     7 ar  
    11     5    15 1   
    12     6     7 ar  
    13     6    16 1   
    14     7    17 1   
    15     8    12 ar  
    16     8    18 1   
    17     9    10 ar  
    18     9    12 ar  
    19     9    19 1   
    20    10    11 ar  
    21    10    20 1   
    22    11    21 1   
    23    12    23 1   
    24    13    22 1   
    25    13    23 1   
    26    23    25 1   
    27    23    26 1   
@<TRIPOS>SUBSTRUCTURE
     1 11X         1 TEMP              0 ****  ****    0 ROOT
