@<TRIPOS>MOLECULE
11Y
   43    46     1     0     0
SMALL
bcc


@<TRIPOS>ATOM
      1 OAA          0.1180    -2.2330    -0.7630 o          1 11Y      -0.805800
      2 CAS          0.5580    -1.0870    -0.4690 c          1 11Y       0.918200
      3 OAD          0.1820    -0.3790     0.4950 o          1 11Y      -0.805800
      4 CBC          1.6150    -0.5160    -1.4240 ca         1 11Y      -0.086600
      5 CAQ          1.2160    -0.2580    -2.7400 ca         1 11Y      -0.134000
      6 CAY          2.9500    -0.2930    -1.0690 ca         1 11Y       0.044400
      7 ClA          3.5070    -0.6070     0.5070 cl         1 11Y      -0.092400
      8 CAM          3.8690     0.1880    -2.0100 ca         1 11Y      -0.141000
      9 CAN          3.4750     0.4310    -3.3210 ca         1 11Y      -0.127000
     10 CBB          2.1390     0.1990    -3.7040 ca         1 11Y       0.001600
     11 NBE          1.7530     0.4070    -5.0540 n          1 11Y      -0.364000
     12 CBD          1.8740    -0.6820    -6.0530 c3         1 11Y       0.244200
     13 CBA          1.5680    -2.0520    -5.5630 cc         1 11Y      -0.229400
     14 SAR          1.0180    -2.4690    -4.0420 ss         1 11Y       0.288200
     15 CAO          0.9850    -4.0790    -4.3540 cc         1 11Y      -0.194100
     16 CAX          1.4170    -4.3690    -5.6430 cd         1 11Y      -0.088900
     17 BrA          1.5420    -6.0640    -6.3710 br         1 11Y      -0.092100
     18 CAP          1.7640    -3.1820    -6.3490 cd         1 11Y      -0.123000
     19 CAV          0.7920     1.3350    -5.4610 c          1 11Y       0.671700
     20 OAC          0.4060     2.3680    -4.8990 o          1 11Y      -0.602500
     21 CAU          0.3330     0.9100    -6.8450 ce         1 11Y       0.042900
     22 OAE         -0.5470     1.6500    -7.5620 oh         1 11Y      -0.467100
     23 CAW          0.9420    -0.2480    -7.2010 cf         1 11Y      -0.234400
     24 CAT          0.9140    -0.9890    -8.4650 c          1 11Y       0.624900
     25 OAB          1.9690    -1.2780    -9.0500 o          1 11Y      -0.544100
     26 CAZ         -0.3990    -1.3860    -9.0180 ca         1 11Y      -0.160600
     27 CAK         -0.4530    -1.9070   -10.3200 ca         1 11Y      -0.069500
     28 CAI         -1.6700    -2.3090   -10.8650 ca         1 11Y      -0.150500
     29 CAH         -2.8410    -2.2030   -10.1140 ca         1 11Y      -0.105000
     30 CAJ         -2.7930    -1.6890    -8.8190 ca         1 11Y      -0.150500
     31 CAL         -1.5780    -1.2800    -8.2710 ca         1 11Y      -0.069500
     32 H2           0.1450    -0.3790    -2.9850 ha         1 11Y       0.156000
     33 H3           4.9130     0.3730    -1.7170 ha         1 11Y       0.131000
     34 H4           4.2110     0.7990    -4.0510 ha         1 11Y       0.130000
     35 H5           2.9380    -0.6660    -6.4410 h1         1 11Y       0.097700
     36 H6           0.6710    -4.8200    -3.6160 h4         1 11Y       0.189000
     37 H7           2.1350    -3.1670    -7.3780 ha         1 11Y       0.163000
     38 H8          -0.7480     2.4410    -7.0260 ho         1 11Y       0.446000
     39 H9           0.4790    -1.9970   -10.9000 ha         1 11Y       0.149500
     40 H10         -1.7050    -2.7160   -11.8860 ha         1 11Y       0.132000
     41 H11         -3.8010    -2.5260   -10.5430 ha         1 11Y       0.126000
     42 H12         -3.7140    -1.6080    -8.2230 ha         1 11Y       0.132000
     43 H13         -1.5460    -0.8670    -7.2500 ha         1 11Y       0.149500
@<TRIPOS>BOND
     1     1     2 1   
     2     2     3 1   
     3     2     4 1   
     4     4     5 ar  
     5     4     6 ar  
     6     5    10 ar  
     7     5    32 1   
     8     6     7 1   
     9     6     8 ar  
    10     8     9 ar  
    11     8    33 1   
    12     9    10 ar  
    13     9    34 1   
    14    10    11 1   
    15    11    12 1   
    16    11    19 1   
    17    12    13 1   
    18    12    23 1   
    19    12    35 1   
    20    13    14 1   
    21    13    18 2   
    22    14    15 1   
    23    15    16 2   
    24    15    36 1   
    25    16    17 1   
    26    16    18 1   
    27    18    37 1   
    28    19    20 2   
    29    19    21 1   
    30    21    22 1   
    31    21    23 2   
    32    22    38 1   
    33    23    24 1   
    34    24    25 2   
    35    24    26 1   
    36    26    27 ar  
    37    26    31 ar  
    38    27    28 ar  
    39    27    39 1   
    40    28    29 ar  
    41    28    40 1   
    42    29    30 ar  
    43    29    41 1   
    44    30    31 ar  
    45    30    42 1   
    46    31    43 1   
@<TRIPOS>SUBSTRUCTURE
     1 11Y         1 TEMP              0 ****  ****    0 ROOT
