@<TRIPOS>MOLECULE
11Y
   43    46     1     0     0
SMALL
bcc


@<TRIPOS>ATOM
      1 OAA          0.0000     0.0000     0.0000 o          1 11Y      -0.871300
      2 CAS          1.2150     0.0000     0.0000 c          1 11Y       0.966200
      3 OAD          1.8870     0.0000     1.1670 o          1 11Y      -0.871300
      4 CBC          1.9530    -0.0060    -1.2780 ca         1 11Y      -0.074600
      5 CAQ          3.3490    -0.0120    -1.2800 ca         1 11Y      -0.080000
      6 CAY          1.2580    -0.0120    -2.4900 ca         1 11Y      -0.024600
      7 ClA         -0.4790    -0.0110    -2.4950 cl         1 11Y       0.000600
      8 CAM          1.9530    -0.0180    -3.6850 ca         1 11Y      -0.117000
      9 CAN          3.3340    -0.0190    -3.6860 ca         1 11Y      -0.168000
     10 CBB          4.0360    -0.0180    -2.4850 ca         1 11Y      -0.123400
     11 NBE          5.4330    -0.0240    -2.4920 n          1 11Y       0.048000
     12 CBD          6.2910    -0.0300    -3.6830 c3         1 11Y       0.166200
     13 CBA          6.0370     1.2030    -4.5110 cc         1 11Y       0.010600
     14 SAR          5.8040     2.8230    -3.8690 ss         1 11Y      -0.198800
     15 CAO          5.6110     3.4720    -5.4930 cc         1 11Y       0.026900
     16 CAX          5.7260     2.4860    -6.3850 cd         1 11Y       0.009100
     17 BrA          5.5780     2.7760    -8.2480 br         1 11Y      -0.125100
     18 CAP          5.9610     1.2330    -5.8420 cd         1 11Y      -0.114000
     19 CAV          6.2300    -0.0190    -1.4090 c          1 11Y       0.565700
     20 OAC          5.8430    -0.0080    -0.2570 o          1 11Y      -0.614500
     21 CAU          7.6490    -0.0280    -1.8260 ce         1 11Y       0.092900
     22 OAE          8.7110    -0.0250    -0.9890 oh         1 11Y      -0.447100
     23 CAW          7.7140    -0.0360    -3.1780 cf         1 11Y      -0.287400
     24 CAT          8.9320    -0.0450    -3.9940 c          1 11Y       0.680900
     25 OAB          9.6970     0.9000    -3.9570 o          1 11Y      -0.542100
     26 CAZ          9.2310    -1.2050    -4.8600 ca         1 11Y      -0.145600
     27 CAK         10.3280    -1.1700    -5.7240 ca         1 11Y      -0.062000
     28 CAI         10.6020    -2.2560    -6.5310 ca         1 11Y      -0.127500
     29 CAH          9.7910    -3.3770    -6.4850 ca         1 11Y      -0.084000
     30 CAJ          8.7020    -3.4180    -5.6330 ca         1 11Y      -0.127500
     31 CAL          8.4210    -2.3420    -4.8160 ca         1 11Y      -0.062000
     32 H2           3.8920    -0.0980    -0.3470 ha         1 11Y       0.186000
     33 H3           1.4120    -0.0230    -4.6240 ha         1 11Y       0.097000
     34 H4           3.8730    -0.0340    -4.6260 ha         1 11Y       0.099000
     35 H5           6.1030    -0.9220    -4.2690 h1         1 11Y       0.055700
     36 H6           5.4260     4.5120    -5.7320 h4         1 11Y       0.157000
     37 H7           6.0750     0.3460    -6.4530 ha         1 11Y       0.131000
     38 H8           8.5970    -0.6950    -0.3350 ho         1 11Y       0.415000
     39 H9          11.0000    -0.3210    -5.7120 ha         1 11Y       0.125500
     40 H10         11.4520    -2.2300    -7.2020 ha         1 11Y       0.105000
     41 H11         10.0110    -4.2260    -7.1200 ha         1 11Y       0.098000
     42 H12          8.0680    -4.2950    -5.6080 ha         1 11Y       0.105000
     43 H13          7.9140    -2.8760    -4.0220 ha         1 11Y       0.125500
@<TRIPOS>BOND
     1     1     2 1   
     2     2     3 1   
     3     2     4 1   
     4     4     5 ar  
     5     4     6 ar  
     6     5    10 ar  
     7     5    32 1   
     8     6     7 1   
     9     6     8 ar  
    10     8     9 ar  
    11     8    33 1   
    12     9    10 ar  
    13     9    34 1   
    14    10    11 1   
    15    11    12 1   
    16    11    19 1   
    17    12    13 1   
    18    12    23 1   
    19    12    35 1   
    20    13    14 1   
    21    13    18 2   
    22    14    15 1   
    23    15    16 2   
    24    15    36 1   
    25    16    17 1   
    26    16    18 1   
    27    18    37 1   
    28    19    20 2   
    29    19    21 1   
    30    21    22 1   
    31    21    23 2   
    32    22    38 1   
    33    23    24 1   
    34    24    25 2   
    35    24    26 1   
    36    26    27 ar  
    37    26    31 ar  
    38    27    28 ar  
    39    27    39 1   
    40    28    29 ar  
    41    28    40 1   
    42    29    30 ar  
    43    29    41 1   
    44    30    31 ar  
    45    30    42 1   
    46    31    43 1   
@<TRIPOS>SUBSTRUCTURE
     1 11Y         1 TEMP              0 ****  ****    0 ROOT
