@<TRIPOS>MOLECULE
11Z
   50    50     1     0     0
SMALL
bcc


@<TRIPOS>ATOM
      1 C4          0.0790   -0.2090   -0.0530 c3        1 11Z     -0.076400
      2 C5         -2.5570    0.2760   -2.8140 c3        1 11Z     -0.075900
      3 C6         -0.8150   -1.3130   -3.6420 c3        1 11Z     -0.075900
      4 C7         -2.2950   -0.9930   -3.6000 c3        1 11Z     -0.075400
      5 C8          1.5880   -0.0910   -0.0170 c3        1 11Z     -0.079400
      6 C9          2.1080   -0.1550    1.4040 c3        1 11Z     -0.079400
      7 C10         3.6160   -0.0390    1.4450 c3        1 11Z     -0.078400
      8 C11         4.1360   -0.1060    2.8650 c3        1 11Z     -0.079400
      9 C12         5.6450    0.0130    2.9070 c3        1 11Z     -0.078400
     10 C13         6.1660   -0.0570    4.3270 c3        1 11Z     -0.078400
     11 C14         7.6740    0.0640    4.3720 c3        1 11Z     -0.078400
     12 C15         8.1930   -0.0010    5.7930 c3        1 11Z     -0.065400
     13 O2          9.6190    1.0390    8.0720 o         1 11Z     -0.853800
     14 C17        10.1980    0.2230    7.2980 c         1 11Z      0.907600
     15 O1         11.1840   -0.4920    7.6410 o         1 11Z     -0.853800
     16 C16         9.6980    0.1020    5.8480 c3        1 11Z     -0.193400
     17 C1         -0.4750   -0.1120   -1.4660 c3        1 11Z     -0.063700
     18 C3         -0.2290   -1.3950   -2.2480 c3        1 11Z     -0.073400
     19 C2         -1.9670    0.1950   -1.4220 c3        1 11Z     -0.073400
     20 H1         -0.3650    0.6100    0.5730 hc        1 11Z      0.039200
     21 H2         -0.2340   -1.1830    0.4070 hc        1 11Z      0.039200
     22 H3         -3.6620    0.4520   -2.7430 hc        1 11Z      0.036450
     23 H4         -2.1110    1.1500   -3.3580 hc        1 11Z      0.036450
     24 H5         -0.6570   -2.2880   -4.1720 hc        1 11Z      0.036450
     25 H6         -0.2790   -0.5200   -4.2270 hc        1 11Z      0.036450
     26 H7         -2.6860   -0.8760   -4.6440 hc        1 11Z      0.035700
     27 H8         -2.8480   -1.8460   -3.1260 hc        1 11Z      0.035700
     28 H9          1.9030    0.8770   -0.4870 hc        1 11Z      0.038700
     29 H10         2.0490   -0.9170   -0.6200 hc        1 11Z      0.038700
     30 H11         1.7930   -1.1230    1.8770 hc        1 11Z      0.038200
     31 H12         1.6510    0.6710    2.0100 hc        1 11Z      0.038200
     32 H13         3.9310    0.9300    0.9750 hc        1 11Z      0.036700
     33 H14         4.0740   -0.8640    0.8380 hc        1 11Z      0.036700
     34 H15         3.8230   -1.0760    3.3340 hc        1 11Z      0.037200
     35 H16         3.6780    0.7180    3.4730 hc        1 11Z      0.037200
     36 H17         5.9580    0.9840    2.4400 hc        1 11Z      0.034200
     37 H18         6.1040   -0.8090    2.2970 hc        1 11Z      0.034200
     38 H19         5.8540   -1.0280    4.7930 hc        1 11Z      0.036700
     39 H20         5.7070    0.7640    4.9380 hc        1 11Z      0.036700
     40 H21         8.1340   -0.7590    3.7640 hc        1 11Z      0.025700
     41 H22         7.9860    1.0340    3.9020 hc        1 11Z      0.025700
     42 H23         7.7540    0.8330    6.4040 hc        1 11Z      0.043700
     43 H24         7.8680   -0.9640    6.2660 hc        1 11Z      0.043700
     44 H26        10.1680   -0.7910    5.3660 hc        1 11Z      0.018700
     45 H27        10.0390    1.0120    5.2920 hc        1 11Z      0.018700
     46 H28         0.0430    0.7340   -2.0000 hc        1 11Z      0.047700
     47 H29        -0.6870   -2.2590   -1.6990 hc        1 11Z      0.039950
     48 H30         0.8740   -1.5850   -2.3170 hc        1 11Z      0.039950
     49 H31        -2.4920   -0.6050   -0.8360 hc        1 11Z      0.039950
     50 H32        -2.1330    1.1670   -0.8890 hc        1 11Z      0.039950
@<TRIPOS>BOND
     1    1    5 1   
     2    1   17 1   
     3    1   20 1   
     4    1   21 1   
     5    2    4 1   
     6    2   19 1   
     7    2   22 1   
     8    2   23 1   
     9    3    4 1   
    10    3   18 1   
    11    3   24 1   
    12    3   25 1   
    13    4   26 1   
    14    4   27 1   
    15    5    6 1   
    16    5   28 1   
    17    5   29 1   
    18    6    7 1   
    19    6   30 1   
    20    6   31 1   
    21    7    8 1   
    22    7   32 1   
    23    7   33 1   
    24    8    9 1   
    25    8   34 1   
    26    8   35 1   
    27    9   10 1   
    28    9   36 1   
    29    9   37 1   
    30   10   11 1   
    31   10   38 1   
    32   10   39 1   
    33   11   12 1   
    34   11   40 1   
    35   11   41 1   
    36   12   16 1   
    37   12   42 1   
    38   12   43 1   
    39   13   14 1   
    40   14   15 1   
    41   14   16 1   
    42   16   44 1   
    43   16   45 1   
    44   17   18 1   
    45   17   19 1   
    46   17   46 1   
    47   18   47 1   
    48   18   48 1   
    49   19   49 1   
    50   19   50 1   
@<TRIPOS>SUBSTRUCTURE
     1 11Z         1 TEMP              0 ****  ****    0 ROOT
