@<TRIPOS>MOLECULE
11Z
   50    50     1     0     0
SMALL
bcc


@<TRIPOS>ATOM
      1 C4          -0.1130     0.2190    -0.1830 c3         1 11Z      -0.052400
      2 C5          -3.1770     1.0450    -2.3590 c3         1 11Z      -0.085900
      3 C6          -1.1230     1.1700    -3.7720 c3         1 11Z      -0.085900
      4 C7          -2.5800     0.7570    -3.7220 c3         1 11Z      -0.063400
      5 C8           1.2260     0.9120    -0.0290 c3         1 11Z      -0.103400
      6 C9           1.8000     0.7690     1.3650 c3         1 11Z      -0.067400
      7 C10          2.9590     1.7230     1.5870 c3         1 11Z      -0.067400
      8 C11          2.4800     3.1460     1.7940 c3         1 11Z      -0.108400
      9 C12          3.5870     4.1500     1.5630 c3         1 11Z      -0.065400
     10 C13          3.1210     5.5850     1.7060 c3         1 11Z      -0.065400
     11 C14          1.9290     5.9540     0.8490 c3         1 11Z      -0.089400
     12 C15          2.1830     5.8230    -0.6380 c3         1 11Z      -0.049400
     13 O2          -0.3810     4.2110    -2.5530 o          1 11Z      -0.858800
     14 C17          0.1160     4.5930    -1.4530 c          1 11Z       0.906600
     15 O1          -0.0260     3.9350    -0.3770 o          1 11Z      -0.858800
     16 C16          0.9000     5.9120    -1.4340 c3         1 11Z      -0.189400
     17 C1          -0.9170     0.8420    -1.3130 c3         1 11Z      -0.094700
     18 C3          -0.3300     0.4920    -2.6730 c3         1 11Z      -0.056400
     19 C2          -2.3710     0.3980    -1.2510 c3         1 11Z      -0.056400
     20 H1           0.0340    -0.8770    -0.3680 hc         1 11Z       0.015200
     21 H2          -0.6990     0.3190     0.7700 hc         1 11Z       0.015200
     22 H3          -4.2340     0.6740    -2.3240 hc         1 11Z       0.049200
     23 H4          -3.1950     2.1560    -2.1960 hc         1 11Z       0.049200
     24 H5          -1.0370     2.2870    -3.6350 hc         1 11Z       0.049200
     25 H6          -0.6920     0.9050    -4.7710 hc         1 11Z       0.049200
     26 H7          -2.6710    -0.3390    -3.9470 hc         1 11Z       0.014200
     27 H8          -3.1560     1.3100    -4.5080 hc         1 11Z       0.014200
     28 H9           1.9530     0.4970    -0.7750 hc         1 11Z       0.068700
     29 H10          1.0870     2.0080    -0.2690 hc         1 11Z       0.068700
     30 H11          1.0020     0.9770     2.1260 hc         1 11Z       0.021200
     31 H12          2.1480    -0.2850     1.5260 hc         1 11Z       0.021200
     32 H13          3.6460     1.6800     0.7010 hc         1 11Z       0.018700
     33 H14          3.5510     1.3910     2.4800 hc         1 11Z       0.018700
     34 H15          2.0770     3.2590     2.8340 hc         1 11Z       0.073200
     35 H16          1.6300     3.3640     1.0820 hc         1 11Z       0.073200
     36 H17          4.4200     3.9670     2.2940 hc         1 11Z       0.021200
     37 H18          4.0140     3.9990     0.5360 hc         1 11Z       0.021200
     38 H19          2.8540     5.7720     2.7810 hc         1 11Z       0.013700
     39 H20          3.9810     6.2630     1.4550 hc         1 11Z       0.013700
     40 H21          1.6400     7.0140     1.0810 hc         1 11Z       0.053700
     41 H22          1.0470     5.3020     1.1100 hc         1 11Z       0.053700
     42 H23          2.8960     6.6250    -0.9670 hc         1 11Z       0.017200
     43 H24          2.6670     4.8340    -0.8500 hc         1 11Z       0.017200
     44 H26          1.1350     6.1990    -2.4910 hc         1 11Z       0.025200
     45 H27          0.2330     6.7020    -1.0050 hc         1 11Z       0.025200
     46 H28         -0.8780     1.9760    -1.2000 hc         1 11Z       0.145700
     47 H29          0.7350     0.8390    -2.7140 hc         1 11Z       0.019950
     48 H30         -0.3350    -0.6200    -2.8200 hc         1 11Z       0.019950
     49 H31         -2.8080     0.6830    -0.2590 hc         1 11Z       0.019950
     50 H32         -2.4320    -0.7190    -1.3390 hc         1 11Z       0.019950
@<TRIPOS>BOND
     1     1     5 1   
     2     1    17 1   
     3     1    20 1   
     4     1    21 1   
     5     2     4 1   
     6     2    19 1   
     7     2    22 1   
     8     2    23 1   
     9     3     4 1   
    10     3    18 1   
    11     3    24 1   
    12     3    25 1   
    13     4    26 1   
    14     4    27 1   
    15     5     6 1   
    16     5    28 1   
    17     5    29 1   
    18     6     7 1   
    19     6    30 1   
    20     6    31 1   
    21     7     8 1   
    22     7    32 1   
    23     7    33 1   
    24     8     9 1   
    25     8    34 1   
    26     8    35 1   
    27     9    10 1   
    28     9    36 1   
    29     9    37 1   
    30    10    11 1   
    31    10    38 1   
    32    10    39 1   
    33    11    12 1   
    34    11    40 1   
    35    11    41 1   
    36    12    16 1   
    37    12    42 1   
    38    12    43 1   
    39    13    14 1   
    40    14    15 1   
    41    14    16 1   
    42    16    44 1   
    43    16    45 1   
    44    17    18 1   
    45    17    19 1   
    46    17    46 1   
    47    18    47 1   
    48    18    48 1   
    49    19    49 1   
    50    19    50 1   
@<TRIPOS>SUBSTRUCTURE
     1 11Z         1 TEMP              0 ****  ****    0 ROOT
