@<TRIPOS>MOLECULE
molecule
   50    50     1     0     0
SMALL
bcc


@<TRIPOS>ATOM
      1 C4           0.0000     0.0000     0.0000 c3         1 11Z      -0.078400
      2 C5          -2.5450     0.1260    -2.8860 c3         1 11Z      -0.079400
      3 C6          -0.6160    -1.3070    -3.5690 c3         1 11Z      -0.079400
      4 C7          -2.1410    -1.1810    -3.5700 c3         1 11Z      -0.079400
      5 C8           1.5300     0.0000     0.0000 c3         1 11Z      -0.083400
      6 C9           2.0400     0.0000     1.4420 c3         1 11Z      -0.082400
      7 C10          3.5710     0.0010     1.4420 c3         1 11Z      -0.082400
      8 C11          4.0820     0.0010     2.8840 c3         1 11Z      -0.082400
      9 C12          5.6110     0.0010     2.8830 c3         1 11Z      -0.083400
     10 C13          6.1220     0.0010     4.3260 c3         1 11Z      -0.081400
     11 C14          7.6510     0.0010     4.3250 c3         1 11Z      -0.088400
     12 C15          8.1620     0.0010     5.7680 c3         1 11Z      -0.063400
     13 O2           9.4100    -0.0170     8.1060 o          1 11Z      -0.858800
     14 C17         10.1950     0.0000     7.1870 c          1 11Z       0.890600
     15 O1          11.5150     0.0000     7.4320 o          1 11Z      -0.858800
     16 C16          9.6920     0.0010     5.7670 c3         1 11Z      -0.182400
     17 C1          -0.5100     0.0000    -1.4420 c3         1 11Z      -0.070700
     18 C3          -0.1050    -1.3070    -2.1270 c3         1 11Z      -0.075400
     19 C2          -2.0340     0.1260    -1.4440 c3         1 11Z      -0.075400
     20 H1          -0.3610    -0.8840     0.5110 hc         1 11Z       0.041200
     21 H2          -0.3610     0.8850     0.5110 hc         1 11Z       0.041200
     22 H3          -2.1100     0.9610    -3.4220 hc         1 11Z       0.038200
     23 H4          -3.6250     0.2130    -2.8860 hc         1 11Z       0.038200
     24 H5          -0.1850    -0.4690    -4.1030 hc         1 11Z       0.038200
     25 H6          -0.3310    -2.2340    -4.0520 hc         1 11Z       0.038200
     26 H7          -2.5710    -2.0170    -3.0320 hc         1 11Z       0.037200
     27 H8          -2.5010    -1.1790    -4.5920 hc         1 11Z       0.037200
     28 H9           1.8910     0.8850    -0.5110 hc         1 11Z       0.040700
     29 H10          1.8910    -0.8840    -0.5110 hc         1 11Z       0.040700
     30 H11          1.6790     0.8840     1.9530 hc         1 11Z       0.039700
     31 H12          1.6800    -0.8850     1.9520 hc         1 11Z       0.039700
     32 H13          3.9320    -0.8830     0.9310 hc         1 11Z       0.038700
     33 H14          3.9310     0.8860     0.9310 hc         1 11Z       0.038700
     34 H15          3.7210     0.8850     3.3950 hc         1 11Z       0.039700
     35 H16          3.7210    -0.8840     3.3950 hc         1 11Z       0.039700
     36 H17          5.9720    -0.8840     2.3730 hc         1 11Z       0.036200
     37 H18          5.9720     0.8850     2.3720 hc         1 11Z       0.036200
     38 H19          5.7610     0.8850     4.8370 hc         1 11Z       0.038700
     39 H20          5.7610    -0.8840     4.8370 hc         1 11Z       0.038700
     40 H21          8.0120    -0.8840     3.8140 hc         1 11Z       0.028700
     41 H22          8.0120     0.8850     3.8140 hc         1 11Z       0.028700
     42 H23          7.8010     0.8850     6.2780 hc         1 11Z       0.045200
     43 H24          7.8010    -0.8840     6.2790 hc         1 11Z       0.045200
     44 H26         10.0530     0.8860     5.2570 hc         1 11Z       0.026700
     45 H27         10.0530    -0.8830     5.2560 hc         1 11Z       0.026700
     46 H28         -0.0800     0.8350    -1.9810 hc         1 11Z       0.050700
     47 H29          0.9750    -1.3930    -2.1270 hc         1 11Z       0.041950
     48 H30         -0.5390    -2.1430    -1.5910 hc         1 11Z       0.041950
     49 H31         -2.4650    -0.7120    -0.9100 hc         1 11Z       0.041950
     50 H32         -2.3190     1.0530    -0.9620 hc         1 11Z       0.041950
@<TRIPOS>BOND
     1    12    16 1
     2    12    11 1
     3    10     9 1
     4    10    11 1
     5    16    14 1
     6     9     8 1
     7    13    14 1
     8     7     8 1
     9     7     6 1
    10    14    15 1
    11     5     6 1
    12     5     1 1
    13     3    18 1
    14     3     4 1
    15    18    17 1
    16    17     1 1
    17    17    19 1
    18     4     2 1
    19    19     2 1
    20     1    20 1
    21     1    21 1
    22     2    22 1
    23     2    23 1
    24     3    24 1
    25     3    25 1
    26     4    26 1
    27     4    27 1
    28     5    28 1
    29     5    29 1
    30     6    30 1
    31     6    31 1
    32     7    32 1
    33     7    33 1
    34     8    34 1
    35     8    35 1
    36     9    36 1
    37     9    37 1
    38    10    38 1
    39    10    39 1
    40    11    40 1
    41    11    41 1
    42    12    42 1
    43    12    43 1
    44    16    44 1
    45    16    45 1
    46    17    46 1
    47    18    47 1
    48    18    48 1
    49    19    49 1
    50    19    50 1
@<TRIPOS>SUBSTRUCTURE
     1 11Z         1 TEMP              0 ****  ****    0 ROOT
