@<TRIPOS>MOLECULE
120
   31    33     1     0     0
SMALL
bcc


@<TRIPOS>ATOM
      1 C1         -0.0230    0.0090   -0.0110 ca        1 120     -0.289900
      2 C2          1.3000   -0.4890   -0.0110 ca        1 120     -0.091000
      3 C3          1.9900   -0.7030    1.1690 ca        1 120     -0.111000
      4 C4          1.3370   -0.4010    2.3730 ca        1 120     -0.022200
      5 C5         -0.0320    0.1160    2.3810 ca        1 120      0.069400
      6 C6         -0.7020    0.3130    1.1750 ca        1 120     -0.021000
      7 C7         -0.7120    0.2150   -1.3050 ce        1 120      0.528400
      8 N1         -1.9940   -0.2010   -1.4360 nh        1 120     -0.477100
      9 N2         -0.0380    0.8140   -2.3160 nh        1 120     -0.461200
     10 N3          1.7180   -0.4830    3.7000 na        1 120     -0.245300
     11 N4         -0.4420    0.3310    3.7060 nc        1 120     -0.578100
     12 C8          0.6180   -0.0330    4.4780 cd        1 120      0.543100
     13 C1'         0.6470    0.0230    5.9350 cd        1 120     -0.301800
     14 C2'        -0.4480    0.4830    6.6360 cc        1 120      0.053000
     15 C3'        -0.4250    0.5380    8.0520 cc        1 120     -0.266000
     16 C4'         0.7060    0.1270    8.7270 cd        1 120      0.057600
     17 N5'         1.8060   -0.3330    8.0620 n         1 120     -0.414100
     18 C6'         1.8470   -0.4120    6.6550 c         1 120      0.699700
     19 O6'         2.9030   -0.8470    6.1440 o         1 120     -0.665500
     20 HC2         1.7940   -0.7410   -0.9630 ha        1 120      0.143000
     21 HC3         3.0170   -1.1000    1.1620 ha        1 120      0.168000
     22 HC6        -1.7250    0.7210    1.1770 ha        1 120      0.158000
     23 HH11       -2.4280   -0.6600   -0.6630 hn        1 120      0.323450
     24 HH12       -2.5280   -0.0700   -2.2660 hn        1 120      0.323450
     25 HH21        0.8950    1.1260   -2.1480 hn        1 120      0.323450
     26 HH22       -0.4290    0.9600   -3.2200 hn        1 120      0.323450
     27 HN3         2.5890   -0.7990    4.0670 hn        1 120      0.357700
     28 HC2'       -1.3630    0.8170    6.1140 ha        1 120      0.172000
     29 HC3'       -1.3000    0.9050    8.6040 ha        1 120      0.173000
     30 HC4'        0.7710    0.1520    9.8330 h4        1 120      0.174000
     31 HN5'        2.6180   -0.6270    8.5660 hn        1 120      0.353500
@<TRIPOS>BOND
     1    1    2 ar  
     2    1    6 ar  
     3    1    7 1   
     4    2    3 ar  
     5    2   20 1   
     6    3    4 ar  
     7    3   21 1   
     8    4    5 ar  
     9    4   10 1   
    10    5    6 ar  
    11    5   11 1   
    12    6   22 1   
    13    7    8 2   
    14    7    9 1   
    15    8   23 1   
    16    8   24 1   
    17    9   25 1   
    18    9   26 1   
    19   10   12 1   
    20   10   27 1   
    21   11   12 2   
    22   12   13 1   
    23   13   14 2   
    24   13   18 1   
    25   14   15 1   
    26   14   28 1   
    27   15   16 2   
    28   15   29 1   
    29   16   17 1   
    30   16   30 1   
    31   17   18 1   
    32   17   31 1   
    33   18   19 2   
@<TRIPOS>SUBSTRUCTURE
     1 120         1 TEMP              0 ****  ****    0 ROOT
