@<TRIPOS>MOLECULE
molecule
   32    34     1     0     0
SMALL
bcc


@<TRIPOS>ATOM
      1 C1           0.0000     0.0000     0.0000 ca         1 121      -0.243900
      2 C2           1.4010     0.0000     0.0000 ca         1 121      -0.071000
      3 C3           2.0940     0.0000     1.1760 ca         1 121      -0.079000
      4 C4           1.4130     0.0010     2.3880 ca         1 121       0.016800
      5 C5           0.0060     0.0010     2.4080 ca         1 121       0.122400
      6 C6          -0.6990     0.0070     1.2020 ca         1 121      -0.022000
      7 C7          -0.7360     0.0000    -1.2810 ce         1 121       0.442800
      8 N1          -2.0690     0.0010    -1.2830 nz         1 121      -0.771600
      9 N2          -0.0690    -0.0010    -2.4330 nv         1 121      -0.394100
     10 N3           1.8160     0.0000     3.7060 na         1 121      -0.198300
     11 N4          -0.3770     0.0020     3.7080 nc         1 121      -0.563100
     12 C8           0.6830     0.0020     4.4770 cd         1 121       0.489800
     13 C1'          0.6620     0.0010     5.9550 ca         1 121       0.318000
     14 N2'          1.8050     0.0010     6.6320 nb         1 121      -0.668000
     15 C3'          1.8290     0.0010     7.9470 ca         1 121       0.418200
     16 C4'          0.6550     0.0020     8.6830 ca         1 121      -0.158300
     17 C5'         -0.5630     0.0020     8.0230 ca         1 121      -0.157000
     18 C6'         -0.5630     0.0080     6.6320 ca         1 121       0.084800
     19 O6'         -1.7320     0.0090     5.9420 oh         1 121      -0.480100
     20 HC2          1.9390    -0.0050    -0.9410 ha         1 121       0.152000
     21 HC3          3.1780    -0.0000     1.1650 ha         1 121       0.190000
     22 HC6         -1.7820     0.0070     1.2040 ha         1 121       0.143000
     23 HH11        -2.4040    -0.8150    -0.8090 hn         1 121       0.502467
     24 HH12        -2.4010    -0.0030    -2.2270 hn         1 121       0.502467
     25 HH21        -0.5680    -0.0010    -3.3010 hn         1 121       0.354700
     26 HH22         0.9320    -0.0010    -2.4330 hn         1 121       0.354700
     27 HN3          2.7600    -0.0000     4.0380 hn         1 121       0.364700
     28 HC3'         2.7810     0.0010     8.4630 h4         1 121       0.057100
     29 HC4'         0.6900    -0.0010     9.7660 ha         1 121       0.175000
     30 HC5'        -1.4930     0.0050     8.5780 ha         1 121       0.174000
     31 HO6         -2.3150     0.6510     6.3130 ho         1 121       0.442000
     32 H13         -2.4030     0.8230    -0.8210 hn         1 121       0.502467
@<TRIPOS>BOND
     1     1     2 ar
     2     1     6 ar
     3     1     7 1
     4     2     3 ar
     5     2    20 1
     6     3     4 ar
     7     3    21 1
     8     4     5 ar
     9     4    10 1
    10     5     6 ar
    11     5    11 1
    12     6    22 1
    13     7     8 1
    14     7     9 2
    15     8    23 1
    16     8    24 1
    17     9    25 1
    18     9    26 1
    19    10    12 1
    20    10    27 1
    21    11    12 2
    22    12    13 1
    23    13    14 ar
    24    13    18 ar
    25    14    15 ar
    26    15    16 ar
    27    15    28 1
    28    16    17 ar
    29    16    29 1
    30    17    18 ar
    31    17    30 1
    32    18    19 1
    33    19    31 1
    34    32     8 1
@<TRIPOS>SUBSTRUCTURE
     1 121         1 TEMP              0 ****  ****    0 ROOT
