@<TRIPOS>MOLECULE
121
   32    34     1     0     0
SMALL
bcc


@<TRIPOS>ATOM
      1 C1           0.0000     0.0000     0.0000 ca         1 121      -0.230900
      2 C2           1.4010     0.0000     0.0000 ca         1 121      -0.075000
      3 C3           2.0940     0.0000     1.1760 ca         1 121      -0.006000
      4 C4           1.4130     0.0010     2.3880 ca         1 121      -0.202200
      5 C5           0.0060     0.0010     2.4080 ca         1 121       0.077400
      6 C6          -0.6990     0.0070     1.2020 ca         1 121       0.049000
      7 C7          -0.7360     0.0000    -1.2810 ce         1 121      -0.028200
      8 N1          -2.0690     0.0010    -1.2830 nz         1 121       0.181400
      9 N2          -0.0690    -0.0010    -2.4330 nv         1 121       0.261900
     10 N3           1.8160     0.0000     3.7060 na         1 121       0.394700
     11 N4          -0.3770     0.0020     3.7080 nc         1 121      -0.462100
     12 C8           0.6830     0.0020     4.4770 cd         1 121       0.257800
     13 C1'          0.6620     0.0010     5.9550 ca         1 121       0.249000
     14 N2'          1.8050     0.0010     6.6320 nb         1 121      -0.556000
     15 C3'          1.8290     0.0010     7.9470 ca         1 121       0.394200
     16 C4'          0.6550     0.0020     8.6830 ca         1 121      -0.111300
     17 C5'         -0.5630     0.0020     8.0230 ca         1 121      -0.142000
     18 C6'         -0.5630     0.0080     6.6320 ca         1 121       0.111800
     19 O6'         -1.7320     0.0090     5.9420 oh         1 121      -0.461100
     20 HC2          1.9390    -0.0050    -0.9410 ha         1 121       0.118000
     21 HC3          3.1780    -0.0000     1.1650 ha         1 121       0.145000
     22 HC6         -1.7820     0.0070     1.2040 ha         1 121       0.103000
     23 HH11        -2.4040    -0.8150    -0.8090 hn         1 121       0.245467
     24 HH12        -2.4030     0.8200    -0.8150 hn         1 121       0.245467
     25 HH21         0.9320    -0.0010    -2.4330 hn         1 121       0.159200
     26 HH22        -0.5680    -0.0000    -3.3010 hn         1 121       0.159200
     27 HN3          2.7600    -0.0000     4.0380 hn         1 121       0.174700
     28 HC3'         2.7810     0.0010     8.4630 h4         1 121       0.006100
     29 HC4'         0.6900    -0.0010     9.7660 ha         1 121       0.136000
     30 HC5'        -1.4930     0.0050     8.5780 ha         1 121       0.140000
     31 HO6         -2.3150     0.6510     6.3130 ho         1 121       0.421000
     32 H13         -2.4010    -0.0100    -2.2270 hn         1 121       0.245467
@<TRIPOS>BOND
     1     1     2 ar  
     2     1     6 ar  
     3     1     7 1   
     4     2     3 ar  
     5     2    20 1   
     6     3     4 ar  
     7     3    21 1   
     8     4     5 ar  
     9     4    10 1   
    10     5     6 ar  
    11     5    11 1   
    12     6    22 1   
    13     7     8 1   
    14     7     9 2   
    15     8    23 1   
    16     8    24 1   
    17     8    32 1   
    18     9    25 1   
    19     9    26 1   
    20    10    12 1   
    21    10    27 1   
    22    11    12 2   
    23    12    13 1   
    24    13    14 ar  
    25    13    18 ar  
    26    14    15 ar  
    27    15    16 ar  
    28    15    28 1   
    29    16    17 ar  
    30    16    29 1   
    31    17    18 ar  
    32    17    30 1   
    33    18    19 1   
    34    19    31 1   
@<TRIPOS>SUBSTRUCTURE
     1 121         1 TEMP              0 ****  ****    0 ROOT
