@<TRIPOS>MOLECULE
121
   32    34     1     0     0
SMALL
bcc


@<TRIPOS>ATOM
      1 C1           0.0910     0.0290    -0.1140 ca         1 121      -0.265900
      2 C2           1.5370     0.1040    -0.0590 ca         1 121      -0.023000
      3 C3           2.2380     0.1510     1.1110 ca         1 121      -0.127000
      4 C4           1.5160     0.1330     2.3370 ca         1 121       0.090800
      5 C5           0.0240     0.0410     2.3070 ca         1 121       0.077400
      6 C6          -0.6490    -0.0070     1.1220 ca         1 121      -0.024000
      7 C7          -0.5580     0.0030    -1.3630 ce         1 121       0.486800
      8 N1          -2.0030    -0.3930    -1.3810 nz         1 121      -0.838600
      9 N2           0.0070     0.3330    -2.5460 nv         1 121      -0.453100
     10 N3           1.8650     0.1910     3.6390 na         1 121      -0.198300
     11 N4          -0.4540     0.0340     3.6430 nc         1 121      -0.491100
     12 C8           0.6330     0.1280     4.4230 cd         1 121       0.477800
     13 C1'          0.6650     0.2050     5.8890 ca         1 121       0.277000
     14 N2'         -0.4270     0.7810     6.4780 nb         1 121      -0.584000
     15 C3'         -0.4630     0.8490     7.8080 ca         1 121       0.385200
     16 C4'          0.5680     0.3520     8.6500 ca         1 121      -0.133300
     17 C5'          1.6810    -0.2270     8.0640 ca         1 121      -0.168000
     18 C6'          1.7440    -0.3020     6.6540 ca         1 121       0.070800
     19 O6'          2.8190    -0.8460     6.0020 oh         1 121      -0.530100
     20 HC2          2.1200     0.0890    -0.9970 ha         1 121       0.165000
     21 HC3          3.3420     0.1970     1.1170 ha         1 121       0.202000
     22 HC6         -1.7510    -0.0340     1.1500 ha         1 121       0.160000
     23 HH11        -2.5760     0.4040    -1.0570 hn         1 121       0.497133
     24 HH12        -2.3290    -0.6740    -2.3180 hn         1 121       0.497133
     25 HH21        -0.4080     0.1420    -3.4350 hn         1 121       0.346700
     26 HH22         0.9190     0.7500    -2.5490 hn         1 121       0.346700
     27 HN3          2.7810     0.2050     4.0400 hn         1 121       0.370700
     28 HC3'        -1.3650     1.3260     8.2410 h4         1 121       0.064100
     29 HC4'         0.4730     0.4340     9.7450 ha         1 121       0.185000
     30 HC5'         2.5060    -0.6270     8.6750 ha         1 121       0.174000
     31 HO6          3.4260    -1.2270     6.6600 ho         1 121       0.468000
     32 H13         -2.1340    -1.1880    -0.7350 hn         1 121       0.497133
@<TRIPOS>BOND
     1     1     2 ar  
     2     1     6 ar  
     3     1     7 1   
     4     2     3 ar  
     5     2    20 1   
     6     3     4 ar  
     7     3    21 1   
     8     4     5 ar  
     9     4    10 1   
    10     5     6 ar  
    11     5    11 1   
    12     6    22 1   
    13     7     8 1   
    14     7     9 2   
    15     8    23 1   
    16     8    24 1   
    17     8    32 1   
    18     9    25 1   
    19     9    26 1   
    20    10    12 1   
    21    10    27 1   
    22    11    12 2   
    23    12    13 1   
    24    13    14 ar  
    25    13    18 ar  
    26    14    15 ar  
    27    15    16 ar  
    28    15    28 1   
    29    16    17 ar  
    30    16    29 1   
    31    17    18 ar  
    32    17    30 1   
    33    18    19 1   
    34    19    31 1   
@<TRIPOS>SUBSTRUCTURE
     1 121         1 TEMP              0 ****  ****    0 ROOT
