@<TRIPOS>MOLECULE
molecule
   33    35     1     0     0
SMALL
bcc


@<TRIPOS>ATOM
      1 C1           0.0000     0.0000     0.0000 ca         1 122      -0.222900
      2 C2           1.4010     0.0000     0.0000 ca         1 122      -0.085000
      3 C3           2.0930     0.0000     1.1740 ca         1 122      -0.046000
      4 C4           1.4050     0.0010     2.3950 ca         1 122       0.241400
      5 C5          -0.0030     0.0010     2.4010 ca         1 122      -0.098200
      6 C6          -0.7000     0.0060     1.2060 ca         1 122      -0.065000
      7 C7          -0.7370    -0.0020    -1.2800 ce         1 122       0.400800
      8 N1          -2.0700    -0.0010    -1.2820 nz         1 122      -0.761600
      9 N2          -0.0690    -0.0010    -2.4330 nv         1 122      -0.413100
     10 N3           1.8110     0.0010     3.6800 nc         1 122      -0.546100
     11 N4          -0.3820     0.0010     3.7310 na         1 122      -0.267300
     12 C8           0.7660     0.0010     4.4750 cd         1 122       0.677400
     13 C1'          0.8220     0.0010     5.9500 ca         1 122      -0.225900
     14 C2'         -0.0790     0.7710     6.6870 ca         1 122      -0.060000
     15 C3'         -0.0220     0.7670     8.0650 ca         1 122      -0.148000
     16 C4'          0.9250     0.0000     8.7230 ca         1 122      -0.010000
     17 C5'          1.8220    -0.7670     8.0050 ca         1 122      -0.214000
     18 C6'          1.7750    -0.7780     6.6200 ca         1 122       0.220100
     19 O6'          2.6560    -1.5320     5.9130 oh         1 122      -0.477100
     20 HC2          1.9390    -0.0050    -0.9410 ha         1 122       0.154000
     21 HC3          3.1760     0.0000     1.1630 ha         1 122       0.206000
     22 HC6         -1.7840     0.0060     1.2070 ha         1 122       0.123000
     23 HH11        -2.4020    -0.0040    -2.2260 hn         1 122       0.495467
     24 HH12        -2.4050    -0.8160    -0.8080 hn         1 122       0.495467
     25 HH21        -0.5680    -0.0020    -3.3000 hn         1 122       0.349700
     26 HH22         0.9320    -0.0000    -2.4320 hn         1 122       0.349700
     27 HN4         -1.3420    -0.1070     3.9920 hn         1 122       0.339700
     28 HC2'        -0.8270     1.3670     6.1780 ha         1 122       0.138000
     29 HC3'        -0.7170     1.3710     8.6360 ha         1 122       0.167000
     30 HC4'         0.9680     0.0080     9.8050 ha         1 122       0.170000
     31 HC5'         2.5710    -1.3520     8.5250 ha         1 122       0.169000
     32 HO6          2.9780    -2.2310     6.4570 ho         1 122       0.451000
     33 H13         -2.4040     0.8150    -0.8080 hn         1 122       0.495467
@<TRIPOS>BOND
     1     1     2 ar
     2     1     6 ar
     3     1     7 1
     4     2     3 ar
     5     2    20 1
     6     3     4 ar
     7     3    21 1
     8     4     5 ar
     9     4    10 1
    10     5     6 ar
    11     5    11 1
    12     6    22 1
    13     7     8 1
    14     7     9 2
    15     8    23 1
    16     8    24 1
    17     9    25 1
    18     9    26 1
    19    10    12 2
    20    11    12 1
    21    11    27 1
    22    12    13 1
    23    13    14 ar
    24    13    18 ar
    25    14    15 ar
    26    14    28 1
    27    15    16 ar
    28    15    29 1
    29    16    17 ar
    30    16    30 1
    31    17    18 ar
    32    17    31 1
    33    18    19 1
    34    19    32 1
    35    33     8 1
@<TRIPOS>SUBSTRUCTURE
     1 122         1 TEMP              0 ****  ****    0 ROOT
