@<TRIPOS>MOLECULE
122
   33    35     1     0     0
SMALL
bcc


@<TRIPOS>ATOM
      1 C1           0.0150    -0.0280    -0.0780 ca         1 122      -0.189900
      2 C2           1.4700     0.0590    -0.0570 ca         1 122      -0.076000
      3 C3           2.2040     0.0780     1.0810 ca         1 122      -0.078000
      4 C4           1.5360     0.0190     2.3530 ca         1 122       0.229400
      5 C5           0.0300    -0.0720     2.3360 ca         1 122      -0.061200
      6 C6          -0.6910    -0.0970     1.1880 ca         1 122      -0.094000
      7 C7          -0.6400    -0.0290    -1.3040 ce         1 122       0.401800
      8 N1          -2.0810    -0.4450    -1.3450 nz         1 122      -0.826600
      9 N2          -0.1150     0.3930    -2.4920 nv         1 122      -0.491100
     10 N3           1.9950     0.0350     3.6040 nc         1 122      -0.495100
     11 N4          -0.3320    -0.1040     3.6980 na         1 122      -0.290300
     12 C8           0.8460    -0.0420     4.4580 cd         1 122       0.687400
     13 C1'          0.8750    -0.0280     5.8810 ca         1 122      -0.256900
     14 C2'         -0.3110     0.2830     6.6180 ca         1 122      -0.055000
     15 C3'         -0.3090     0.3590     7.9880 ca         1 122      -0.154000
     16 C4'          0.8810     0.1190     8.7150 ca         1 122       0.035000
     17 C5'          2.0450    -0.2020     8.0480 ca         1 122      -0.245000
     18 C6'          2.0610    -0.2900     6.6350 ca         1 122       0.284100
     19 O6'          3.1760    -0.6680     5.9730 oh         1 122      -0.443100
     20 HC2          2.0120     0.0750    -1.0200 ha         1 122       0.167000
     21 HC3          3.3090     0.1310     1.0670 ha         1 122       0.210000
     22 HC6         -1.7900    -0.1280     1.2240 ha         1 122       0.140000
     23 HH11        -2.2210    -1.2200    -0.6840 hn         1 122       0.481467
     24 HH12        -2.3660    -0.7570    -2.2840 hn         1 122       0.481467
     25 HH21        -0.3430    -0.0400    -3.3600 hn         1 122       0.329700
     26 HH22         0.6990     0.9730    -2.4650 hn         1 122       0.329700
     27 HN4         -1.2560    -0.1720     4.0500 hn         1 122       0.344700
     28 HC2'        -1.2490     0.5010     6.0840 ha         1 122       0.139000
     29 HC3'        -1.2310     0.6130     8.5380 ha         1 122       0.180000
     30 HC4'         0.8690     0.1890     9.8180 ha         1 122       0.184000
     31 HC5'         2.9770    -0.3960     8.6080 ha         1 122       0.181000
     32 HO6          3.9070    -0.8030     6.6080 ho         1 122       0.471000
     33 H13         -2.6740     0.3510    -1.0720 hn         1 122       0.481467
@<TRIPOS>BOND
     1     1     2 ar  
     2     1     6 ar  
     3     1     7 1   
     4     2     3 ar  
     5     2    20 1   
     6     3     4 ar  
     7     3    21 1   
     8     4     5 ar  
     9     4    10 1   
    10     5     6 ar  
    11     5    11 1   
    12     6    22 1   
    13     7     8 1   
    14     7     9 2   
    15     8    23 1   
    16     8    24 1   
    17     8    33 1   
    18     9    25 1   
    19     9    26 1   
    20    10    12 2   
    21    11    12 1   
    22    11    27 1   
    23    12    13 1   
    24    13    14 ar  
    25    13    18 ar  
    26    14    15 ar  
    27    14    28 1   
    28    15    16 ar  
    29    15    29 1   
    30    16    17 ar  
    31    16    30 1   
    32    17    18 ar  
    33    17    31 1   
    34    18    19 1   
    35    19    32 1   
@<TRIPOS>SUBSTRUCTURE
     1 122         1 TEMP              0 ****  ****    0 ROOT
