@<TRIPOS>MOLECULE
122
   33    35     1     0     0
SMALL
bcc


@<TRIPOS>ATOM
      1 C1           0.0000     0.0000     0.0000 ca         1 122      -0.204900
      2 C2           1.4010     0.0000     0.0000 ca         1 122      -0.089000
      3 C3           2.0930     0.0000     1.1740 ca         1 122       0.019000
      4 C4           1.4050     0.0010     2.3950 ca         1 122       0.185400
      5 C5          -0.0030     0.0010     2.4010 ca         1 122      -0.271200
      6 C6          -0.7000     0.0060     1.2060 ca         1 122       0.008000
      7 C7          -0.7370    -0.0020    -1.2800 ce         1 122      -0.065200
      8 N1          -2.0700    -0.0010    -1.2820 nz         1 122       0.197400
      9 N2          -0.0690    -0.0010    -2.4330 nv         1 122       0.232900
     10 N3           1.8110     0.0010     3.6800 nc         1 122      -0.451100
     11 N4          -0.3820     0.0010     3.7310 na         1 122       0.262700
     12 C8           0.7660     0.0010     4.4750 cd         1 122       0.474400
     13 C1'          0.8220     0.0010     5.9500 ca         1 122      -0.248900
     14 C2'         -0.0790     0.7710     6.6870 ca         1 122      -0.033000
     15 C3'         -0.0220     0.7670     8.0650 ca         1 122      -0.120000
     16 C4'          0.9250     0.0000     8.7230 ca         1 122       0.034000
     17 C5'          1.8220    -0.7670     8.0050 ca         1 122      -0.196000
     18 C6'          1.7750    -0.7780     6.6200 ca         1 122       0.243100
     19 O6'          2.6560    -1.5320     5.9130 oh         1 122      -0.460100
     20 HC2          1.9390    -0.0050    -0.9410 ha         1 122       0.121000
     21 HC3          3.1760    -0.0000     1.1630 ha         1 122       0.157000
     22 HC6         -1.7840     0.0060     1.2070 ha         1 122       0.091000
     23 HH11        -2.4020    -0.0060    -2.2260 hn         1 122       0.236800
     24 HH12        -2.4050    -0.8150    -0.8060 hn         1 122       0.236800
     25 HH21         0.9320    -0.0010    -2.4320 hn         1 122       0.157200
     26 HH22        -0.5680    -0.0030    -3.3000 hn         1 122       0.157200
     27 HN4         -1.3290    -0.1010     4.0370 hn         1 122       0.163700
     28 HC2'        -0.8340     1.3580     6.1780 ha         1 122       0.100000
     29 HC3'        -0.7230     1.3640     8.6360 ha         1 122       0.132000
     30 HC4'         0.9630     0.0020     9.8050 ha         1 122       0.127000
     31 HC5'         2.5600    -1.3660     8.5250 ha         1 122       0.138000
     32 HO6          2.9910    -2.2210     6.4620 ho         1 122       0.429000
     33 H13         -2.4040     0.8160    -0.8100 hn         1 122       0.236800
@<TRIPOS>BOND
     1     1     2 ar  
     2     1     6 ar  
     3     1     7 1   
     4     2     3 ar  
     5     2    20 1   
     6     3     4 ar  
     7     3    21 1   
     8     4     5 ar  
     9     4    10 1   
    10     5     6 ar  
    11     5    11 1   
    12     6    22 1   
    13     7     8 1   
    14     7     9 2   
    15     8    23 1   
    16     8    24 1   
    17     8    33 1   
    18     9    25 1   
    19     9    26 1   
    20    10    12 2   
    21    11    12 1   
    22    11    27 1   
    23    12    13 1   
    24    13    14 ar  
    25    13    18 ar  
    26    14    15 ar  
    27    14    28 1   
    28    15    16 ar  
    29    15    29 1   
    30    16    17 ar  
    31    16    30 1   
    32    17    18 ar  
    33    17    31 1   
    34    18    19 1   
    35    19    32 1   
@<TRIPOS>SUBSTRUCTURE
     1 122         1 TEMP              0 ****  ****    0 ROOT
