@<TRIPOS>MOLECULE
123
   37    39     1     0     0
SMALL
bcc


@<TRIPOS>ATOM
      1 C1           0.0450     0.0010    -0.0950 ca         1 123      -0.256900
      2 C2           1.4900    -0.1040    -0.1290 ca         1 123      -0.021000
      3 C3           2.2620    -0.1290     0.9960 ca         1 123      -0.131000
      4 C4           1.6190    -0.0410     2.2620 ca         1 123       0.091800
      5 C5           0.1270     0.0530     2.3280 ca         1 123       0.095400
      6 C6          -0.6170     0.0720     1.1840 ca         1 123      -0.046000
      7 C7          -0.6750     0.0370    -1.3020 ce         1 123       0.476800
      8 N1          -2.1560    -0.1800    -1.2300 nz         1 123      -0.836600
      9 N2          -0.1480     0.2820    -2.5240 nv         1 123      -0.459100
     10 N3           2.0550    -0.0220     3.5360 na         1 123      -0.197300
     11 N4          -0.2570     0.1300     3.6850 nc         1 123      -0.555100
     12 C8           0.8820     0.0870     4.4060 cd         1 123       0.601400
     13 C1'          0.9980     0.1190     5.8520 ca         1 123      -0.190900
     14 C2'         -0.1570    -0.1920     6.6090 ca         1 123      -0.130000
     15 C3'         -0.1120    -0.1620     7.9990 ca         1 123       0.112100
     16 O3'         -1.1670    -0.4520     8.8290 os         1 123      -0.300900
     17 CM3         -2.4070    -0.7810     8.2070 c3         1 123       0.105700
     18 C4'          1.0840     0.1830     8.6790 ca         1 123      -0.034000
     19 C5'          2.2140     0.4910     7.9470 ca         1 123      -0.181000
     20 C6'          2.1820     0.4600     6.5380 ca         1 123       0.158100
     21 O6'          3.3050     0.7700     5.8080 oh         1 123      -0.544100
     22 HC2          2.0070    -0.2030    -1.1000 ha         1 123       0.165000
     23 HC3          3.3610    -0.2200     0.9350 ha         1 123       0.202000
     24 HC6         -1.7090     0.1840     1.2740 ha         1 123       0.157000
     25 HH11        -2.6090     0.6870    -0.8980 hn         1 123       0.494800
     26 HH12        -2.5660    -0.4400    -2.1390 hn         1 123       0.494800
     27 HH21        -0.6280     0.1100    -3.3820 hn         1 123       0.344700
     28 HH22         0.8010     0.5990    -2.5870 hn         1 123       0.344700
     29 HN3          3.0000    -0.0330     3.8710 hn         1 123       0.373700
     30 HC2'        -1.0920    -0.4600     6.0930 ha         1 123       0.167000
     31 H3'1        -3.0870    -0.9560     9.0820 h1         1 123       0.058700
     32 H3'2        -2.7730     0.0700     7.5850 h1         1 123       0.058700
     33 H3'3        -2.3040    -1.7090     7.5950 h1         1 123       0.058700
     34 HC4'         1.0900     0.2000     9.7830 ha         1 123       0.189000
     35 HC5'         3.1490     0.7650     8.4640 ha         1 123       0.170000
     36 HO6          4.0110     1.0440     6.4170 ho         1 123       0.468000
     37 H13         -2.3440    -0.9390    -0.5560 hn         1 123       0.494800
@<TRIPOS>BOND
     1     1     2 ar  
     2     1     6 ar  
     3     1     7 1   
     4     2     3 ar  
     5     2    22 1   
     6     3     4 ar  
     7     3    23 1   
     8     4     5 ar  
     9     4    10 1   
    10     5     6 ar  
    11     5    11 1   
    12     6    24 1   
    13     7     8 1   
    14     7     9 2   
    15     8    25 1   
    16     8    26 1   
    17     8    37 1   
    18     9    27 1   
    19     9    28 1   
    20    10    12 1   
    21    10    29 1   
    22    11    12 2   
    23    12    13 1   
    24    13    14 ar  
    25    13    20 ar  
    26    14    15 ar  
    27    14    30 1   
    28    15    16 1   
    29    15    18 ar  
    30    16    17 1   
    31    17    31 1   
    32    17    32 1   
    33    17    33 1   
    34    18    19 ar  
    35    18    34 1   
    36    19    20 ar  
    37    19    35 1   
    38    20    21 1   
    39    21    36 1   
@<TRIPOS>SUBSTRUCTURE
     1 123         1 TEMP              0 ****  ****    0 ROOT
