@<TRIPOS>MOLECULE
molecule
   37    39     1     0     0
SMALL
bcc


@<TRIPOS>ATOM
      1 C1           0.0000     0.0000     0.0000 ca         1 123      -0.245900
      2 C2           1.4000     0.0000     0.0000 ca         1 123      -0.129000
      3 C3           2.0930     0.0000     1.1760 ca         1 123      -0.050000
      4 C4           1.4130    -0.0000     2.3880 ca         1 123      -0.003200
      5 C5           0.0050    -0.0000     2.4070 ca         1 123       0.105400
      6 C6          -0.6990     0.0000     1.2020 ca         1 123       0.040000
      7 C7          -0.7380    -0.0000    -1.2810 ce         1 123       0.441800
      8 N1          -0.0710     0.0000    -2.4340 nz         1 123      -0.768600
      9 N2          -2.0690     0.0000    -1.2820 nv         1 123      -0.396100
     10 N3           1.8160    -0.0010     3.7070 na         1 123      -0.188300
     11 N4          -0.3780    -0.0070     3.7080 nc         1 123      -0.571100
     12 C8           0.6830    -0.0020     4.4780 cd         1 123       0.593400
     13 C1'          0.6620    -0.0030     5.9550 ca         1 123      -0.165900
     14 C2'         -0.2700    -0.7830     6.6420 ca         1 123      -0.081000
     15 C3'         -0.2890    -0.7750     8.0240 ca         1 123       0.118100
     16 O3'         -1.1990    -1.5300     8.6950 os         1 123      -0.279900
     17 CM3         -0.9670    -1.3180    10.0890 c3         1 123       0.096700
     18 C4'          0.6240    -0.0010     8.7310 ca         1 123      -0.143000
     19 C5'          1.5520     0.7690     8.0580 ca         1 123      -0.138000
     20 C6'          1.5790     0.7740     6.6720 ca         1 123       0.110100
     21 O6'          2.4920     1.5320     6.0120 oh         1 123      -0.540100
     22 HC2          1.9370    -0.0000    -0.9410 ha         1 123       0.131000
     23 HC3          3.1760     0.0000     1.1650 ha         1 123       0.187000
     24 HC6         -1.7830     0.0000     1.2030 ha         1 123       0.162000
     25 HH11        -0.7200     0.0000    -3.1950 hn         1 123       0.502467
     26 HH12         0.5050    -0.8160    -2.4870 hn         1 123       0.502467
     27 HH21        -2.5690     0.0010    -2.1500 hn         1 123       0.354700
     28 HH22        -2.5710     0.0010    -0.4170 hn         1 123       0.354700
     29 HN3          2.7600     0.0020     4.0390 hn         1 123       0.361700
     30 HC2'        -0.9260    -1.4500     6.0950 ha         1 123       0.168000
     31 H3'1         0.0430    -1.6230    10.3370 h1         1 123       0.058033
     32 H3'2        -1.6730    -1.9030    10.6660 h1         1 123       0.058033
     33 H3'3        -1.0940    -0.2680    10.3210 h1         1 123       0.058033
     34 HC4'         0.6060    -0.0000     9.8140 ha         1 123       0.175000
     35 HC5'         2.2610     1.3700     8.6140 ha         1 123       0.165000
     36 HO6          2.4830     2.4080     6.3590 ho         1 123       0.450000
     37 H13          0.4970     0.8230    -2.4900 hn         1 123       0.502467
@<TRIPOS>BOND
     1     1     2 ar
     2     1     6 ar
     3     1     7 1
     4     2     3 ar
     5     2    22 1
     6     3     4 ar
     7     3    23 1
     8     4     5 ar
     9     4    10 1
    10     5     6 ar
    11     5    11 1
    12     6    24 1
    13     7     8 1
    14     7     9 2
    15     8    25 1
    16     8    26 1
    17     9    27 1
    18     9    28 1
    19    10    12 1
    20    10    29 1
    21    11    12 2
    22    12    13 1
    23    13    14 ar
    24    13    20 ar
    25    14    15 ar
    26    14    30 1
    27    15    16 1
    28    15    18 ar
    29    16    17 1
    30    17    31 1
    31    17    32 1
    32    17    33 1
    33    18    19 ar
    34    18    34 1
    35    19    20 ar
    36    19    35 1
    37    20    21 1
    38    21    36 1
    39    37     8 1
@<TRIPOS>SUBSTRUCTURE
     1 123         1 TEMP              0 ****  ****    0 ROOT
