@<TRIPOS>MOLECULE
124
   34    36     1     0     0
SMALL
bcc


@<TRIPOS>ATOM
      1 C1           0.0530    -0.0340    -0.0950 ca         1 124      -0.253900
      2 C2           1.5010    -0.1220    -0.0880 ca         1 124      -0.037000
      3 C3           2.2360    -0.1640     1.0570 ca         1 124      -0.126000
      4 C4           1.5550    -0.1110     2.3120 ca         1 124       0.093800
      5 C5           0.0680    -0.0310     2.3320 ca         1 124      -0.068800
      6 C6          -0.6370     0.0030     1.1730 ca         1 124      -0.038000
      7 C7          -0.6270     0.0220    -1.3200 ce         1 124       0.469800
      8 N1          -2.1060    -0.2250    -1.3060 nz         1 124      -0.835600
      9 N2          -0.0670     0.3170    -2.5170 nv         1 124      -0.464100
     10 N3           1.9990    -0.1200     3.5830 na         1 124      -0.078400
     11 C9          -0.2940     0.0130     3.7380 cc         1 124      -0.180200
     12 C8           0.8790    -0.0440     4.4870 cd         1 124       0.112700
     13 C1'          1.0300    -0.0520     5.9210 ca         1 124      -0.151800
     14 C2'         -0.0820    -0.4410     6.7020 ca         1 124      -0.054000
     15 C3'         -0.0210    -0.4490     8.0860 ca         1 124      -0.148000
     16 C4'          1.1570    -0.0650     8.7410 ca         1 124      -0.023000
     17 C5'          2.2700     0.3190     8.0040 ca         1 124      -0.201000
     18 C6'          2.2120     0.3210     6.6000 ca         1 124       0.176100
     19 O6'          3.3030     0.6890     5.8480 oh         1 124      -0.544100
     20 HC2          2.0450    -0.1960    -1.0470 ha         1 124       0.164000
     21 HC3          3.3370    -0.2430     1.0300 ha         1 124       0.198000
     22 HC6         -1.7330     0.1010     1.2300 ha         1 124       0.143000
     23 HH11        -2.5910     0.6330    -1.0000 hn         1 124       0.492800
     24 HH12        -2.3060    -0.9850    -0.6380 hn         1 124       0.492800
     25 HH21        -0.5020     0.1270    -3.3960 hn         1 124       0.343200
     26 HH22         0.8690     0.6730    -2.5370 hn         1 124       0.343200
     27 HN3          2.9530    -0.1300     3.8950 hn         1 124       0.367700
     28 HC9         -1.3090     0.0920     4.1270 ha         1 124       0.200000
     29 HC2'        -1.0110    -0.7520     6.1970 ha         1 124       0.143000
     30 HC3'        -0.8990    -0.7580     8.6760 ha         1 124       0.169000
     31 HC4'         1.2010    -0.0700     9.8440 ha         1 124       0.172000
     32 HC5'         3.1980     0.6210     8.5140 ha         1 124       0.166000
     33 HO6          4.0120     0.9790     6.4460 ho         1 124       0.465000
     34 H13         -2.4710    -0.4970    -2.2310 hn         1 124       0.492800
@<TRIPOS>BOND
     1     1     2 ar  
     2     1     6 ar  
     3     1     7 1   
     4     2     3 ar  
     5     2    20 1   
     6     3     4 ar  
     7     3    21 1   
     8     4     5 ar  
     9     4    10 1   
    10     5     6 ar  
    11     5    11 1   
    12     6    22 1   
    13     7     8 1   
    14     7     9 2   
    15     8    23 1   
    16     8    24 1   
    17     8    34 1   
    18     9    25 1   
    19     9    26 1   
    20    10    12 1   
    21    10    27 1   
    22    11    12 2   
    23    11    28 1   
    24    12    13 1   
    25    13    14 ar  
    26    13    18 ar  
    27    14    15 ar  
    28    14    29 1   
    29    15    16 ar  
    30    15    30 1   
    31    16    17 ar  
    32    16    31 1   
    33    17    18 ar  
    34    17    32 1   
    35    18    19 1   
    36    19    33 1   
@<TRIPOS>SUBSTRUCTURE
     1 124         1 TEMP              0 ****  ****    0 ROOT
