@<TRIPOS>MOLECULE
124
   34    36     1     0     0
SMALL
bcc


@<TRIPOS>ATOM
      1 C1           0.0000     0.0000     0.0000 ca         1 124      -0.172900
      2 C2           1.4020     0.0000     0.0000 ca         1 124      -0.119000
      3 C3           2.0980     0.0000     1.1730 ca         1 124      -0.022000
      4 C4           1.4230     0.0010     2.3910 ca         1 124      -0.195200
      5 C5           0.0130     0.0020     2.4050 ca         1 124      -0.102800
      6 C6          -0.6960     0.0070     1.2050 ca         1 124       0.008000
      7 C7          -0.7380     0.0010    -1.2800 ce         1 124      -0.058200
      8 N1          -2.0700     0.0010    -1.2800 nz         1 124       0.196400
      9 N2          -0.0710    -0.0000    -2.4340 nv         1 124       0.237900
     10 N3           1.8470     0.0020     3.6990 na         1 124       0.546600
     11 C9          -0.3830     0.0030     3.8130 cc         1 124      -0.101200
     12 C8           0.7600     0.0030     4.5430 cd         1 124      -0.105300
     13 C1'          0.8280     0.0030     6.0200 ca         1 124      -0.147800
     14 C2'         -0.0620     0.7790     6.7630 ca         1 124      -0.030000
     15 C3'          0.0060     0.7750     8.1400 ca         1 124      -0.112000
     16 C4'          0.9550     0.0040     8.7900 ca         1 124      -0.002000
     17 C5'          1.8420    -0.7680     8.0640 ca         1 124      -0.164000
     18 C6'          1.7830    -0.7790     6.6800 ca         1 124       0.167100
     19 O6'          2.6540    -1.5390     5.9670 oh         1 124      -0.525100
     20 HC2          2.1680    -0.0040    -0.7660 ha         1 124       0.149000
     21 HC3          3.1800    -0.0070     1.1330 ha         1 124       0.142000
     22 HC6         -1.7500     0.0210     1.4530 ha         1 124       0.129000
     23 HH11        -2.4030    -0.0040    -2.2240 hn         1 124       0.237800
     24 HH12        -2.4040     0.8200    -0.8130 hn         1 124       0.237800
     25 HH21         0.9300    -0.0010    -2.4340 hn         1 124       0.155700
     26 HH22        -0.5710     0.0000    -3.3010 hn         1 124       0.155700
     27 HN3          2.8040     0.0020     3.9930 hn         1 124       0.157700
     28 HC9         -1.3960     0.0030     4.1990 ha         1 124       0.162000
     29 HC2'        -0.8060     1.3830     6.2590 ha         1 124       0.109000
     30 HC3'        -0.6860     1.3770     8.7160 ha         1 124       0.128000
     31 HC4'         1.0040     0.0090     9.8720 ha         1 124       0.125000
     32 HC5'         2.5810    -1.3700     8.5790 ha         1 124       0.133000
     33 HO6          2.7990    -2.3560     6.4140 ho         1 124       0.440000
     34 H13         -2.4040    -0.8180    -0.8110 hn         1 124       0.237800
@<TRIPOS>BOND
     1     1     2 ar  
     2     1     6 ar  
     3     1     7 1   
     4     2     3 ar  
     5     2    20 1   
     6     3     4 ar  
     7     3    21 1   
     8     4     5 ar  
     9     4    10 1   
    10     5     6 ar  
    11     5    11 1   
    12     6    22 1   
    13     7     8 1   
    14     7     9 2   
    15     8    23 1   
    16     8    24 1   
    17     8    34 1   
    18     9    25 1   
    19     9    26 1   
    20    10    12 1   
    21    10    27 1   
    22    11    12 2   
    23    11    28 1   
    24    12    13 1   
    25    13    14 ar  
    26    13    18 ar  
    27    14    15 ar  
    28    14    29 1   
    29    15    16 ar  
    30    15    30 1   
    31    16    17 ar  
    32    16    31 1   
    33    17    18 ar  
    34    17    32 1   
    35    18    19 1   
    36    19    33 1   
@<TRIPOS>SUBSTRUCTURE
     1 124         1 TEMP              0 ****  ****    0 ROOT
