@<TRIPOS>MOLECULE
129
   16    15     1     0     0
SMALL
bcc


@<TRIPOS>ATOM
      1 P            0.0000     0.0000     0.0000 p5         1 129       0.432700
      2 O1P          1.4800     0.0000     0.0000 o          1 129      -0.745833
      3 O2P         -0.5350     0.0000     1.5190 o          1 129      -0.745833
      4 O3P         -0.5380    -1.3140    -0.7570 o          1 129      -0.745833
      5 C4          -0.6080     1.4890    -0.8580 c3         1 129      -0.061600
      6 C3          -0.0990     1.4890    -2.3000 c3         1 129       0.067000
      7 N2          -0.5890     2.6850    -2.9900 n          1 129      -0.028300
      8 C1           0.1390     3.8190    -2.9720 c          1 129       0.609900
      9 O1          -0.2650     4.8080    -3.5440 o          1 129      -0.751100
     10 O2          -1.8260     2.6500    -3.6770 oh         1 129      -0.451100
     11 H41         -0.2470     2.3730    -0.3470 hc         1 129       0.001700
     12 H42         -1.6920     1.4880    -0.8570 hc         1 129       0.001700
     13 H31          0.9840     1.4890    -2.3000 h1         1 129       0.034700
     14 H32         -0.4600     0.6040    -2.8100 h1         1 129       0.034700
     15 H1           1.0930     3.8410    -2.4590 h5         1 129      -0.012800
     16 HO2         -1.6730     2.4760    -4.5910 ho         1 129       0.361000
@<TRIPOS>BOND
     1     1     2 1   
     2     1     3 1   
     3     1     4 1   
     4     1     5 1   
     5     5     6 1   
     6     5    11 1   
     7     5    12 1   
     8     6     7 1   
     9     6    13 1   
    10     6    14 1   
    11     7     8 1   
    12     7    10 1   
    13     8     9 2   
    14     8    15 1   
    15    10    16 1   
@<TRIPOS>SUBSTRUCTURE
     1 129         1 TEMP              0 ****  ****    0 ROOT
