@<TRIPOS>MOLECULE
12B
   20    22     1     0     0
SMALL
bcc


@<TRIPOS>ATOM
      1 CAA         -0.0420     0.0020     0.0350 ca         1 12B      -0.093000
      2 CAB          1.4030     0.0030     0.0350 ca         1 12B       0.031800
      3 CAF          2.0500     0.0010     1.2510 ca         1 12B      -0.160000
      4 CAK          1.2490    -0.0010     2.4280 ca         1 12B      -0.097000
      5 CAJ         -0.1300    -0.0020     2.4180 ca         1 12B      -0.138000
      6 CAD         -0.8330    -0.0010     1.1790 ca         1 12B      -0.009000
      7 CAI         -2.2390    -0.0010     0.9420 ca         1 12B      -0.083000
      8 CAM         -2.7290     0.0000    -0.3480 ca         1 12B      -0.145000
      9 CAH         -1.8900     0.0020    -1.5030 ca         1 12B      -0.037000
     10 CAC         -0.5370     0.0030    -1.3060 ca         1 12B      -0.123000
     11 CAG          0.6880     0.0050    -2.1770 c          1 12B       0.319800
     12 OAL          0.7780     0.0070    -3.4080 o          1 12B      -0.313000
     13 NAE          1.8190     0.0050    -1.3080 ns         1 12B      -0.300300
     14 HAF          3.1440     0.0020     1.3390 ha         1 12B       0.142000
     15 HAK          1.7800    -0.0020     3.3940 ha         1 12B       0.134000
     16 HAJ         -0.7000    -0.0040     3.3570 ha         1 12B       0.137000
     17 HAI         -2.9240    -0.0030     1.8020 ha         1 12B       0.139000
     18 HAM         -3.8180    -0.0010    -0.5130 ha         1 12B       0.138000
     19 HAH         -2.3400     0.0040    -2.5060 ha         1 12B       0.152000
     20 HAE          2.7570     0.0060    -1.6080 hn         1 12B       0.305700
@<TRIPOS>BOND
     1     1     2 ar  
     2     1     6 ar  
     3     1    10 ar  
     4     2     3 ar  
     5     2    13 1   
     6     3     4 ar  
     7     3    14 1   
     8     4     5 ar  
     9     4    15 1   
    10     5     6 ar  
    11     5    16 1   
    12     6     7 ar  
    13     7     8 ar  
    14     7    17 1   
    15     8     9 ar  
    16     8    18 1   
    17     9    10 ar  
    18     9    19 1   
    19    10    11 1   
    20    11    12 2   
    21    11    13 1   
    22    13    20 1   
@<TRIPOS>SUBSTRUCTURE
     1 12B         1 TEMP              0 ****  ****    0 ROOT
