@<TRIPOS>MOLECULE
12B
   20    22     1     0     0
SMALL
bcc


@<TRIPOS>ATOM
      1 CAA        -0.0370   -0.0000    0.0290 ca        1 12B     -0.093000
      2 CAB         1.4070    0.0000    0.0250 ca        1 12B      0.031800
      3 CAF         2.0570    0.0010    1.2400 ca        1 12B     -0.160000
      4 CAK         1.2590    0.0000    2.4180 ca        1 12B     -0.097000
      5 CAJ        -0.1200   -0.0000    2.4120 ca        1 12B     -0.138000
      6 CAD        -0.8260   -0.0000    1.1750 ca        1 12B     -0.009000
      7 CAI        -2.2320   -0.0000    0.9410 ca        1 12B     -0.083000
      8 CAM        -2.7260   -0.0010   -0.3470 ca        1 12B     -0.145000
      9 CAH        -1.8900   -0.0000   -1.5040 ca        1 12B     -0.037000
     10 CAC        -0.5360   -0.0000   -1.3110 ca        1 12B     -0.123000
     11 CAG         0.6860    0.0000   -2.1860 c         1 12B      0.319800
     12 OAL         0.7730   -0.0000   -3.4160 o         1 12B     -0.313000
     13 NAE         1.8200    0.0010   -1.3190 n         1 12B     -0.300300
     14 HAF         3.1510    0.0010    1.3240 ha        1 12B      0.142000
     15 HAK         1.7920    0.0000    3.3830 ha        1 12B      0.134000
     16 HAJ        -0.6870   -0.0000    3.3530 ha        1 12B      0.137000
     17 HAI        -2.9160   -0.0010    1.8030 ha        1 12B      0.139000
     18 HAM        -3.8160   -0.0010   -0.5090 ha        1 12B      0.138000
     19 HAH        -2.3420   -0.0000   -2.5060 ha        1 12B      0.152000
     20 HAE         2.7570   -0.0000   -1.6220 hn        1 12B      0.305700
@<TRIPOS>BOND
     1    1    2 ar  
     2    1    6 ar  
     3    1   10 ar  
     4    2    3 ar  
     5    2   13 1   
     6    3    4 ar  
     7    3   14 1   
     8    4    5 ar  
     9    4   15 1   
    10    5    6 ar  
    11    5   16 1   
    12    6    7 ar  
    13    7    8 ar  
    14    7   17 1   
    15    8    9 ar  
    16    8   18 1   
    17    9   10 ar  
    18    9   19 1   
    19   10   11 1   
    20   11   12 2   
    21   11   13 1   
    22   13   20 1   
@<TRIPOS>SUBSTRUCTURE
     1 12B         1 TEMP              0 ****  ****    0 ROOT
