@<TRIPOS>MOLECULE
molecule
   20    22     1     0     0
SMALL
bcc


@<TRIPOS>ATOM
      1 CAA          0.0000     0.0000     0.0000 ca         1 12B      -0.097000
      2 CAB          1.3910     0.0000     0.0000 ca         1 12B       0.020800
      3 CAF          2.0010     0.0000     1.2410 ca         1 12B      -0.142000
      4 CAK          1.2240     0.0000     2.3980 ca         1 12B      -0.101000
      5 CAJ         -0.1450     0.0000     2.3840 ca         1 12B      -0.131000
      6 CAD         -0.8020     0.0000     1.1420 ca         1 12B      -0.015000
      7 CAI         -2.1940     0.0000     0.9490 ca         1 12B      -0.080000
      8 CAM         -2.6860    -0.0010    -0.3290 ca         1 12B      -0.143000
      9 CAH         -1.8690    -0.0020    -1.4600 ca         1 12B      -0.028000
     10 CAC         -0.4940     0.0060    -1.3120 ca         1 12B      -0.141000
     11 CAG          0.7110    -0.0010    -2.1510 c          1 12B       0.320800
     12 OAL          0.7360    -0.0010    -3.3680 o          1 12B      -0.324000
     13 NAE          1.7940    -0.0000    -1.3300 ns         1 12B      -0.272300
     14 HAF          3.0820     0.0000     1.3140 ha         1 12B       0.134000
     15 HAK          1.7280     0.0000     3.3570 ha         1 12B       0.132000
     16 HAJ         -0.7090     0.0000     3.3090 ha         1 12B       0.138000
     17 HAI         -2.8680     0.0010     1.7970 ha         1 12B       0.139000
     18 HAM         -3.7600    -0.0010    -0.4690 ha         1 12B       0.135000
     19 HAH         -2.3100    -0.0030    -2.4490 ha         1 12B       0.146000
     20 HAE          2.7460     0.0010    -1.6390 hn         1 12B       0.308700
@<TRIPOS>BOND
     1     1     2 ar
     2     1     6 ar
     3     1    10 ar
     4     2     3 ar
     5     2    13 1
     6     3     4 ar
     7     3    14 1
     8     4     5 ar
     9     4    15 1
    10     5     6 ar
    11     5    16 1
    12     6     7 ar
    13     7     8 ar
    14     7    17 1
    15     8     9 ar
    16     8    18 1
    17     9    10 ar
    18     9    19 1
    19    10    11 1
    20    11    12 2
    21    11    13 1
    22    13    20 1
@<TRIPOS>SUBSTRUCTURE
     1 12B         1 TEMP              0 ****  ****    0 ROOT
