@<TRIPOS>MOLECULE
12C
   52    57     1     0     0
SMALL
bcc


@<TRIPOS>ATOM
      1 C1         -0.0480    0.0350   -0.1480 ca        1 12C     -0.140800
      2 C2          1.3470   -0.1570   -0.1410 ca        1 12C     -0.055000
      3 C3          2.0590   -0.1630    1.0510 ca        1 12C     -0.034600
      4 CL          3.7440   -0.3840    1.0310 cl        1 12C     -0.084400
      5 C4          1.3990    0.0050    2.2800 ca        1 12C     -0.062000
      6 C5          0.0260    0.1370    2.3080 ca        1 12C     -0.186000
      7 C6         -0.7240    0.1230    1.0990 ca        1 12C      0.112600
      8 N1         -2.1050    0.1760    1.1430 n         1 12C     -0.442100
      9 C7         -2.8970    0.0660   -0.0040 c         1 12C      0.726700
     10 O1         -4.1350    0.0630    0.1780 o         1 12C     -0.663500
     11 C8         -2.2210    0.0160   -1.3030 cc        1 12C     -0.334800
     12 C9         -3.0850   -0.0840   -2.4790 cc        1 12C      0.495100
     13 C10        -0.8320    0.0680   -1.3920 cd        1 12C      0.311800
     14 N2         -0.1580    0.0800   -2.6070 nh        1 12C     -0.739000
     15 C11         0.8040    1.1260   -2.9010 c3        1 12C      0.173500
     16 N3         -4.3540    0.5490   -2.5370 na        1 12C     -0.252300
     17 C12        -4.9120    0.2010   -3.7710 ca        1 12C     -0.076200
     18 C13        -3.9040   -0.5840   -4.4630 ca        1 12C      0.070400
     19 N4         -2.7850   -0.7420   -3.6280 nd        1 12C     -0.608100
     20 C14        -6.1390    0.5030   -4.3730 ca        1 12C     -0.127000
     21 C15        -6.3530    0.0260   -5.6580 ca        1 12C     -0.117000
     22 C16        -5.3830   -0.7320   -6.3390 ca        1 12C     -0.150000
     23 C17        -4.1610   -1.0430   -5.7630 ca        1 12C     -0.078000
     24 C18         0.1980    2.3350   -3.7000 c3        1 12C      0.109800
     25 N5          0.9540    2.6470   -4.9170 n3        1 12C     -0.658600
     26 C19         0.9260    1.4680   -5.7970 c3        1 12C      0.131300
     27 C20         1.5450    0.2240   -5.1350 c3        1 12C     -0.109900
     28 C21         2.3500    2.9210   -4.5470 c3        1 12C      0.131300
     29 C22         3.0170    1.7320   -3.8320 c3        1 12C     -0.109900
     30 C23         2.0070    0.5890   -3.7260 c3        1 12C     -0.067700
     31 H2          1.8890   -0.3320   -1.0870 ha        1 12C      0.165000
     32 H4          1.9760    0.0160    3.2190 ha        1 12C      0.155000
     33 H5         -0.4920    0.2440    3.2730 ha        1 12C      0.147000
     34 HN1        -2.5630    0.2310    2.0280 hn        1 12C      0.339500
     35 HN2        -0.7000   -0.1810   -3.4090 hn        1 12C      0.450800
     36 H11         1.2060    1.5370   -1.9290 h1        1 12C      0.066700
     37 HN3        -4.8650    0.8340   -1.7360 hn        1 12C      0.325700
     38 H14        -6.9000    1.0950   -3.8480 ha        1 12C      0.138000
     39 H15        -7.3080    0.2420   -6.1600 ha        1 12C      0.131000
     40 H16        -5.6060   -1.0850   -7.3570 ha        1 12C      0.131000
     41 H17        -3.4090   -1.6360   -6.3030 ha        1 12C      0.143000
     42 H181       -0.8670    2.1370   -3.9980 h1        1 12C      0.066700
     43 H182        0.2080    3.2420   -3.0370 h1        1 12C      0.066700
     44 H191        1.4850    1.7250   -6.7370 h1        1 12C      0.058700
     45 H192       -0.1430    1.2660   -6.0770 h1        1 12C      0.058700
     46 H201        2.4220   -0.1310   -5.7330 hc        1 12C      0.051700
     47 H202        0.8020   -0.6110   -5.1040 hc        1 12C      0.051700
     48 H211        2.9140    3.1730   -5.4850 h1        1 12C      0.058700
     49 H212        2.3640    3.8280   -3.8830 h1        1 12C      0.058700
     50 H221        3.3650    2.0370   -2.8140 hc        1 12C      0.051700
     51 H222        3.9120    1.3870   -4.4090 hc        1 12C      0.051700
     52 H23         2.4670   -0.2990   -3.2240 hc        1 12C      0.067700
@<TRIPOS>BOND
     1    1    2 ar  
     2    1    7 ar  
     3    1   13 1   
     4    2    3 ar  
     5    2   31 1   
     6    3    4 1   
     7    3    5 ar  
     8    5    6 ar  
     9    5   32 1   
    10    6    7 ar  
    11    6   33 1   
    12    7    8 1   
    13    8    9 1   
    14    8   34 1   
    15    9   10 2   
    16    9   11 1   
    17   11   12 1   
    18   11   13 2   
    19   12   16 1   
    20   12   19 2   
    21   13   14 1   
    22   14   15 1   
    23   14   35 1   
    24   15   24 1   
    25   15   30 1   
    26   15   36 1   
    27   16   17 1   
    28   16   37 1   
    29   17   18 ar  
    30   17   20 ar  
    31   18   19 1   
    32   18   23 ar  
    33   20   21 ar  
    34   20   38 1   
    35   21   22 ar  
    36   21   39 1   
    37   22   23 ar  
    38   22   40 1   
    39   23   41 1   
    40   24   25 1   
    41   24   42 1   
    42   24   43 1   
    43   25   26 1   
    44   25   28 1   
    45   26   27 1   
    46   26   44 1   
    47   26   45 1   
    48   27   30 1   
    49   27   46 1   
    50   27   47 1   
    51   28   29 1   
    52   28   48 1   
    53   28   49 1   
    54   29   30 1   
    55   29   50 1   
    56   29   51 1   
    57   30   52 1   
@<TRIPOS>SUBSTRUCTURE
     1 12C         1 TEMP              0 ****  ****    0 ROOT
