@<TRIPOS>MOLECULE
12E
   41    43     1     0     0
SMALL
bcc


@<TRIPOS>ATOM
      1 C1           0.0000     0.0000     0.0000 c3         1 12E       0.025000
      2 N1          -0.4890     0.0580    -1.3800 ns         1 12E       0.181000
      3 S1          -2.4740    -1.4970    -0.5470 s          1 12E      -0.377000
      4 C2           1.5310     0.0000     0.0000 c3         1 12E       0.022000
      5 N2          -2.0650    -0.5450    -2.9930 ns         1 12E       0.208000
      6 O2           2.0080    -1.1680    -0.6720 oh         1 12E      -0.299000
      7 C3           2.0350     0.0000     1.4470 c3         1 12E       0.040000
      8 N3          -1.3610     0.1920    -3.9560 n2         1 12E      -0.072000
      9 O3           3.4620     0.0720     1.4560 oh         1 12E      -0.317000
     10 C4           1.4530     1.2150     2.1770 c3         1 12E       0.026000
     11 N4           0.3190     2.4560    -8.0700 n2         1 12E      -0.023000
     12 O4           1.8570     1.1860     3.5480 oh         1 12E      -0.305000
     13 C5          -0.0750     1.1680     2.0940 c3         1 12E       0.063000
     14 O5          -0.4750     1.1380     0.7220 os         1 12E      -0.247000
     15 C6          -0.6610     2.4090     2.7690 c3         1 12E       0.075000
     16 O6          -2.0860     2.3100     2.7940 oh         1 12E      -0.301000
     17 C7          -1.6150    -0.5970    -1.7240 c2         1 12E      -0.130000
     18 C8          -1.7940     0.2430    -5.1780 c2         1 12E      -0.402000
     19 C9          -1.0540     1.0170    -6.1910 c3         1 12E      -0.112000
     20 C10         -1.5040     1.0850    -7.5160 c2         1 12E      -0.110500
     21 C11         -0.7800     1.8220    -8.4300 c2         1 12E      -0.072000
     22 C12          0.7790     2.4180    -6.8330 c2         1 12E      -0.072000
     23 C13          0.1190     1.7070    -5.8550 c2         1 12E      -0.110500
     24 H1          -0.3590    -0.9040     0.4780 h2         1 12E       0.143000
     25 HN1         -0.0050     0.6100    -2.0590 hn         1 12E       0.085000
     26 H2           1.8910     0.8870    -0.5070 h1         1 12E       0.055000
     27 HN2         -2.8830    -1.0590    -3.2560 hn         1 12E       0.127000
     28 HO2          2.7140    -0.9310    -1.2500 ho         1 12E       0.198000
     29 H3           1.7100    -0.9070     1.9410 h1         1 12E       0.074000
     30 HO3          3.8100    -0.6640     1.9310 ho         1 12E       0.204000
     31 H4           1.8120     2.1230     1.7080 h1         1 12E       0.058000
     32 HO4          2.5550     1.8050     3.6830 ho         1 12E       0.198000
     33 H5          -0.4350     0.2760     2.5920 h1         1 12E       0.083000
     34 H6          -0.2860     2.4790     3.7830 h1         1 12E       0.035500
     35 H6A         -0.3700     3.2930     2.2150 h1         1 12E       0.035500
     36 HO6         -2.4390     2.9950     3.3370 ho         1 12E       0.186000
     37 H8          -1.8350     1.3210    -5.2740 DU         1 12E       0.320000
     38 H10         -2.4060     0.5670    -7.8180 ha         1 12E       0.130000
     39 H11         -1.1190     1.8810    -9.4570 h4         1 12E       0.124500
     40 H12          1.6860     2.9550    -6.5840 h4         1 12E       0.124500
     41 H13          0.5020     1.6800    -4.8420 ha         1 12E       0.130000
@<TRIPOS>BOND
     1     1     2 1
     2     1     4 1
     3     1    14 1
     4     1    24 1
     5     2    17 1
     6     2    25 1
     7     3    17 1
     8     4     6 1
     9     4     7 1
    10     4    26 1
    11     5     8 1
    12     5    17 1
    13     5    27 1
    14     6    28 1
    15     7     9 1
    16     7    10 1
    17     7    29 1
    18     8    18 1
    19     9    30 1
    20    10    12 1
    21    10    13 1
    22    10    31 1
    23    11    21 1
    24    11    22 1
    25    12    32 1
    26    13    14 1
    27    13    15 1
    28    13    33 1
    29    15    16 1
    30    15    34 1
    31    15    35 1
    32    16    36 1
    33    18    19 1
    34    18    37 1
    35    19    20 1
    36    19    23 1
    37    19    37 1
    38    20    21 1
    39    20    38 1
    40    21    39 1
    41    22    23 1
    42    22    40 1
    43    23    41 1
@<TRIPOS>SUBSTRUCTURE
     1 12E         1 TEMP              0 ****  ****    0 ROOT
