@<TRIPOS>MOLECULE
molecule
   49    52     1     0     0
SMALL
bcc


@<TRIPOS>ATOM
      1 ClA          0.0000     0.0000     0.0000 cl         1 12G      -0.122400
      2 CBB          1.7350     0.0000     0.0000 ca         1 12G       0.032400
      3 CAM          2.4280     0.0000     1.1990 ca         1 12G      -0.125000
      4 CAI          3.8090     0.0000     1.1980 ca         1 12G      -0.114000
      5 CAK          4.5010     0.0020     0.0010 ca         1 12G      -0.112000
      6 CAO          3.8100     0.0030    -1.1960 ca         1 12G      -0.075000
      7 CBE          2.4280    -0.0050    -1.1980 ca         1 12G      -0.096300
      8 CBF          1.6760    -0.0100    -2.5030 c3         1 12G       0.199200
      9 NBG          2.5020    -0.6050    -3.5590 n          1 12G      -0.348000
     10 CBC          3.0060    -1.9090    -3.5740 ca         1 12G       0.019600
     11 CAR          3.7790    -2.3450    -4.6430 ca         1 12G      -0.158000
     12 CAP          4.2750    -3.6340    -4.6530 ca         1 12G      -0.104500
     13 CAZ          4.0040    -4.4890    -3.6010 ca         1 12G      -0.012300
     14 CAT          4.5470    -5.8950    -3.6170 c3         1 12G      -0.155100
     15 CAU          5.9000    -5.9180    -2.9550 c          1 12G       0.893600
     16 OAD          6.3750    -4.8970    -2.5160 o          1 12G      -0.842800
     17 OAA          6.5780    -7.0720    -2.8540 o          1 12G      -0.842800
     18 CAQ          3.2340    -4.0590    -2.5360 ca         1 12G      -0.104500
     19 CAS          2.7390    -2.7700    -2.5160 ca         1 12G      -0.158000
     20 CAX          2.6890     0.3260    -4.5120 c          1 12G       0.663700
     21 OAC          3.3310     0.1620    -5.5310 o          1 12G      -0.618500
     22 CAW          2.0000     1.5780    -4.1360 ce         1 12G       0.051900
     23 OAE          1.9830     2.7140    -4.8700 oh         1 12G      -0.468100
     24 CAY          1.3860     1.4060    -2.9420 cf         1 12G      -0.220400
     25 CAV          0.5930     2.4020    -2.2150 c          1 12G       0.609900
     26 OAB          1.1330     3.3910    -1.7550 o          1 12G      -0.482100
     27 CBD         -0.8600     2.2050    -2.0400 ca         1 12G      -0.129600
     28 CBA         -1.6140     3.1390    -1.3220 ca         1 12G       0.075400
     29 Cl2         -0.8440     4.5330    -0.6310 cl         1 12G      -0.067400
     30 CAL         -2.9720     2.9480    -1.1640 ca         1 12G      -0.138000
     31 CAH         -3.5870     1.8370    -1.7150 ca         1 12G      -0.105000
     32 CAJ         -2.8460     0.9110    -2.4270 ca         1 12G      -0.163000
     33 CAN         -1.4900     1.0910    -2.5980 ca         1 12G      -0.088000
     34 H1           1.8860    -0.0010     2.1370 ha         1 12G       0.138000
     35 H2           4.3510     0.0000     2.1360 ha         1 12G       0.133000
     36 H3           5.5840     0.0050     0.0010 ha         1 12G       0.145000
     37 H4           4.3520     0.0010    -2.1340 ha         1 12G       0.161000
     38 H5           0.7490    -0.5630    -2.4020 h1         1 12G       0.095700
     39 H6           3.9920    -1.6750    -5.4670 ha         1 12G       0.139500
     40 H7           4.8780    -3.9750    -5.4860 ha         1 12G       0.136000
     41 H8           4.6400    -6.2350    -4.6410 hc         1 12G       0.040700
     42 H9           3.8710    -6.5490    -3.0790 hc         1 12G       0.040700
     43 H11          3.0250    -4.7320    -1.7130 ha         1 12G       0.136000
     44 H12          2.1360    -2.4330    -1.6810 ha         1 12G       0.139500
     45 H13          1.7630     2.5080    -5.7630 ho         1 12G       0.431000
     46 H14         -3.5580     3.6700    -0.6070 ha         1 12G       0.143000
     47 H15         -4.6530     1.6930    -1.5880 ha         1 12G       0.132000
     48 H16         -3.3340     0.0410    -2.8510 ha         1 12G       0.136000
     49 H17         -1.3920     0.5650    -3.5400 ha         1 12G       0.158000
@<TRIPOS>BOND
     1    16    15 1   
     2    14    15 1   
     3    14    13 1   
     4    15    17 1   
     5    18    13 ar  
     6    18    19 ar  
     7    13    12 ar  
     8    19    10 ar  
     9    12    11 ar  
    10    10    11 ar  
    11    10     9 1   
    12    21    20 2   
    13     9    20 1   
    14     9     8 1   
    15    20    22 1   
    16     1     2 1   
    17     8    24 1   
    18     8     7 1   
    19    22    23 1   
    20    22    24 2   
    21    24    25 1   
    22     7     2 ar  
    23     7     6 ar  
    24     2     3 ar  
    25    25    26 2   
    26    25    27 1   
    27    33    27 ar  
    28    33    32 ar  
    29    27    28 ar  
    30     6     5 ar  
    31     3     4 ar  
    32    32    31 ar  
    33    28    29 1   
    34    28    30 ar  
    35     5     4 ar  
    36    31    30 ar  
    37     3    34 1   
    38     4    35 1   
    39     5    36 1   
    40     6    37 1   
    41     8    38 1   
    42    11    39 1   
    43    12    40 1   
    44    14    41 1   
    45    14    42 1   
    46    18    43 1   
    47    19    44 1   
    48    23    45 1   
    49    30    46 1   
    50    31    47 1   
    51    32    48 1   
    52    33    49 1   
@<TRIPOS>SUBSTRUCTURE
     1 12G         1 TEMP              0 ****  ****    0 ROOT
