@<TRIPOS>MOLECULE
12G
   49    52     1     0     0
SMALL
bcc


@<TRIPOS>ATOM
      1 ClA         -0.0560     0.0600     0.0680 cl         1 12G      -0.086400
      2 CBB          1.6470     0.1060     0.0620 ca         1 12G       0.049400
      3 CAM          2.2950     0.1710     1.3020 ca         1 12G      -0.132000
      4 CAI          3.6850     0.1980     1.3620 ca         1 12G      -0.115000
      5 CAK          4.4330     0.1630     0.1850 ca         1 12G      -0.135000
      6 CAO          3.7880     0.1050    -1.0470 ca         1 12G      -0.088000
      7 CBE          2.3890     0.0770    -1.1290 ca         1 12G      -0.078300
      8 CBF          1.7230     0.0090    -2.4790 c3         1 12G       0.205200
      9 NBG          2.2160    -1.1040    -3.3210 n          1 12G      -0.344000
     10 CBC          2.0770    -2.4650    -2.9570 ca         1 12G       0.006600
     11 CAR          2.9650    -3.4400    -3.4640 ca         1 12G      -0.150500
     12 CAP          2.8290    -4.7700    -3.0920 ca         1 12G      -0.125000
     13 CAZ          1.8180    -5.1760    -2.2060 ca         1 12G      -0.012300
     14 CAT          1.7150    -6.5880    -1.7740 c3         1 12G      -0.180100
     15 CAU          1.8400    -7.6060    -2.9350 c          1 12G       0.919600
     16 OAD          0.8390    -8.3330    -3.1760 o          1 12G      -0.837300
     17 OAA          2.9450    -7.6810    -3.5460 o          1 12G      -0.837300
     18 CAQ          0.9260    -4.2100    -1.7260 ca         1 12G      -0.125000
     19 CAS          1.0420    -2.8730    -2.0920 ca         1 12G      -0.150500
     20 CAX          2.7980    -0.6190    -4.4800 c          1 12G       0.663700
     21 OAC          3.3500    -1.2110    -5.4200 o          1 12G      -0.617500
     22 CAW          2.6370     0.8960    -4.4510 ce         1 12G       0.084900
     23 OAE          3.0560     1.6590    -5.4830 oh         1 12G      -0.458100
     24 CAY          2.0020     1.2760    -3.3100 cf         1 12G      -0.265400
     25 CAV          1.5250     2.5850    -2.8840 c          1 12G       0.617900
     26 OAB          0.6250     2.7220    -2.0470 o          1 12G      -0.511100
     27 CBD          2.1310     3.7770    -3.5410 ca         1 12G      -0.130600
     28 CBA          3.3500     4.3220    -3.1160 ca         1 12G       0.048400
     29 Cl2          4.2100     3.6320    -1.8240 cl         1 12G      -0.082400
     30 CAL          3.8760     5.4560    -3.7470 ca         1 12G      -0.132000
     31 CAH          3.1800     6.0480    -4.7990 ca         1 12G      -0.115000
     32 CAJ          1.9620     5.5170    -5.2200 ca         1 12G      -0.134000
     33 CAN          1.4380     4.3890    -4.5920 ca         1 12G      -0.083000
     34 H1           1.7030     0.1940     2.2290 ha         1 12G       0.143000
     35 H2           4.1900     0.2400     2.3370 ha         1 12G       0.131000
     36 H3           5.5320     0.1740     0.2280 ha         1 12G       0.134000
     37 H4           4.3830     0.0750    -1.9730 ha         1 12G       0.142000
     38 H5           0.6040    -0.0970    -2.3590 h1         1 12G       0.105700
     39 H6           3.7580    -3.1550    -4.1740 ha         1 12G       0.131500
     40 H7           3.4960    -5.5510    -3.5090 ha         1 12G       0.162000
     41 H8           2.5500    -6.8060    -1.0570 hc         1 12G       0.040700
     42 H9           0.7440    -6.7670    -1.2470 hc         1 12G       0.040700
     43 H11          0.1100    -4.5110    -1.0520 ha         1 12G       0.162000
     44 H12          0.3230    -2.1450    -1.6880 ha         1 12G       0.131500
     45 H13          3.4440     1.0520    -6.1440 ho         1 12G       0.453000
     46 H14          4.8350     5.8780    -3.4120 ha         1 12G       0.144000
     47 H15          3.5960     6.9370    -5.2950 ha         1 12G       0.132000
     48 H16          1.4120     5.9870    -6.0490 ha         1 12G       0.134000
     49 H17          0.4750     3.9700    -4.9200 ha         1 12G       0.145000
@<TRIPOS>BOND
     1     1     2 1   
     2     2     3 ar  
     3     2     7 ar  
     4     3     4 ar  
     5     3    34 1   
     6     4     5 ar  
     7     4    35 1   
     8     5     6 ar  
     9     5    36 1   
    10     6     7 ar  
    11     6    37 1   
    12     7     8 1   
    13     8     9 1   
    14     8    24 1   
    15     8    38 1   
    16     9    10 1   
    17     9    20 1   
    18    10    11 ar  
    19    10    19 ar  
    20    11    12 ar  
    21    11    39 1   
    22    12    13 ar  
    23    12    40 1   
    24    13    14 1   
    25    13    18 ar  
    26    14    15 1   
    27    14    41 1   
    28    14    42 1   
    29    15    16 1   
    30    15    17 1   
    31    18    19 ar  
    32    18    43 1   
    33    19    44 1   
    34    20    21 2   
    35    20    22 1   
    36    22    23 1   
    37    22    24 2   
    38    23    45 1   
    39    24    25 1   
    40    25    26 2   
    41    25    27 1   
    42    27    28 ar  
    43    27    33 ar  
    44    28    29 1   
    45    28    30 ar  
    46    30    31 ar  
    47    30    46 1   
    48    31    32 ar  
    49    31    47 1   
    50    32    33 ar  
    51    32    48 1   
    52    33    49 1   
@<TRIPOS>SUBSTRUCTURE
     1 12G         1 TEMP              0 ****  ****    0 ROOT
