@<TRIPOS>MOLECULE
12G
   49    52     1     0     0
SMALL
bcc


@<TRIPOS>ATOM
      1 ClA          0.0000     0.0000     0.0000 cl         1 12G      -0.040400
      2 CBB          1.7350     0.0000     0.0000 ca         1 12G      -0.024600
      3 CAM          2.4280     0.0000     1.1990 ca         1 12G      -0.102000
      4 CAI          3.8090     0.0000     1.1980 ca         1 12G      -0.085000
      5 CAK          4.5010     0.0020     0.0010 ca         1 12G      -0.078000
      6 CAO          3.8100     0.0030    -1.1960 ca         1 12G      -0.058000
      7 CBE          2.4280    -0.0050    -1.1980 ca         1 12G      -0.107300
      8 CBF          1.6760    -0.0100    -2.5030 c3         1 12G       0.119200
      9 NBG          2.5020    -0.6050    -3.5590 n          1 12G       0.065000
     10 CBC          3.0060    -1.9090    -3.5740 ca         1 12G      -0.130400
     11 CAR          3.7790    -2.3450    -4.6430 ca         1 12G      -0.141500
     12 CAP          4.2750    -3.6340    -4.6530 ca         1 12G      -0.077500
     13 CAZ          4.0040    -4.4890    -3.6010 ca         1 12G      -0.000300
     14 CAT          4.5470    -5.8950    -3.6170 c3         1 12G      -0.097100
     15 CAU          5.9000    -5.9180    -2.9550 c          1 12G       0.981600
     16 OAD          6.3750    -4.8970    -2.5160 o          1 12G      -0.893300
     17 OAA          6.5780    -7.0720    -2.8540 o          1 12G      -0.893300
     18 CAQ          3.2340    -4.0590    -2.5360 ca         1 12G      -0.077500
     19 CAS          2.7390    -2.7700    -2.5160 ca         1 12G      -0.141500
     20 CAX          2.6890     0.3260    -4.5120 c          1 12G       0.573700
     21 OAC          3.3310     0.1620    -5.5310 o          1 12G      -0.666500
     22 CAW          2.0000     1.5780    -4.1360 ce         1 12G       0.070900
     23 OAE          1.9830     2.7140    -4.8700 oh         1 12G      -0.447100
     24 CAY          1.3860     1.4060    -2.9420 cf         1 12G      -0.258400
     25 CAV          0.5930     2.4020    -2.2150 c          1 12G       0.675900
     26 OAB          1.1330     3.3910    -1.7550 o          1 12G      -0.532100
     27 CBD         -0.8600     2.2050    -2.0400 ca         1 12G      -0.139600
     28 CBA         -1.6140     3.1390    -1.3220 ca         1 12G       0.003400
     29 Cl2         -0.8440     4.5330    -0.6310 cl         1 12G       0.028600
     30 CAL         -2.9720     2.9480    -1.1640 ca         1 12G      -0.117000
     31 CAH         -3.5870     1.8370    -1.7150 ca         1 12G      -0.074000
     32 CAJ         -2.8460     0.9110    -2.4270 ca         1 12G      -0.141000
     33 CAN         -1.4900     1.0910    -2.5980 ca         1 12G      -0.065000
     34 H1           1.8860    -0.0010     2.1370 ha         1 12G       0.109000
     35 H2           4.3510     0.0000     2.1360 ha         1 12G       0.103000
     36 H3           5.5840     0.0050     0.0010 ha         1 12G       0.114000
     37 H4           4.3520     0.0010    -2.1340 ha         1 12G       0.129000
     38 H5           0.7490    -0.5630    -2.4020 h1         1 12G       0.062700
     39 H6           3.9920    -1.6750    -5.4670 ha         1 12G       0.125000
     40 H7           4.8780    -3.9750    -5.4860 ha         1 12G       0.108000
     41 H8           4.6400    -6.2350    -4.6410 hc         1 12G       0.013700
     42 H9           3.8710    -6.5490    -3.0790 hc         1 12G       0.013700
     43 H11          3.0250    -4.7320    -1.7130 ha         1 12G       0.108000
     44 H12          2.1360    -2.4330    -1.6810 ha         1 12G       0.125000
     45 H13          1.7630     2.5080    -5.7630 ho         1 12G       0.410000
     46 H14         -3.5580     3.6700    -0.6070 ha         1 12G       0.113000
     47 H15         -4.6530     1.6930    -1.5880 ha         1 12G       0.101000
     48 H16         -3.3340     0.0410    -2.8510 ha         1 12G       0.109000
     49 H17         -1.3920     0.5650    -3.5400 ha         1 12G       0.128000
@<TRIPOS>BOND
     1     1     2 1   
     2     2     3 ar  
     3     2     7 ar  
     4     3     4 ar  
     5     3    34 1   
     6     4     5 ar  
     7     4    35 1   
     8     5     6 ar  
     9     5    36 1   
    10     6     7 ar  
    11     6    37 1   
    12     7     8 1   
    13     8     9 1   
    14     8    24 1   
    15     8    38 1   
    16     9    10 1   
    17     9    20 1   
    18    10    11 ar  
    19    10    19 ar  
    20    11    12 ar  
    21    11    39 1   
    22    12    13 ar  
    23    12    40 1   
    24    13    14 1   
    25    13    18 ar  
    26    14    15 1   
    27    14    41 1   
    28    14    42 1   
    29    15    16 1   
    30    15    17 1   
    31    18    19 ar  
    32    18    43 1   
    33    19    44 1   
    34    20    21 2   
    35    20    22 1   
    36    22    23 1   
    37    22    24 2   
    38    23    45 1   
    39    24    25 1   
    40    25    26 2   
    41    25    27 1   
    42    27    28 ar  
    43    27    33 ar  
    44    28    29 1   
    45    28    30 ar  
    46    30    31 ar  
    47    30    46 1   
    48    31    32 ar  
    49    31    47 1   
    50    32    33 ar  
    51    32    48 1   
    52    33    49 1   
@<TRIPOS>SUBSTRUCTURE
     1 12G         1 TEMP              0 ****  ****    0 ROOT
