@<TRIPOS>MOLECULE
molecule
   38    37     1     0     0
SMALL
bcc


@<TRIPOS>ATOM
      1 C1           0.0000     0.0000     0.0000 c3         1 12H       0.139400
      2 C2           1.5290     0.0000     0.0000 c3         1 12H      -0.081400
      3 C3           2.0400     0.0000     1.4410 c3         1 12H      -0.082400
      4 C4           3.5700    -0.0000     1.4410 c3         1 12H      -0.080400
      5 C5           4.0820    -0.0000     2.8820 c3         1 12H      -0.082400
      6 C6           5.6110    -0.0000     2.8810 c3         1 12H      -0.082400
      7 C7           6.1220    -0.0000     4.3230 c3         1 12H      -0.083400
      8 C8           7.6510    -0.0000     4.3220 c3         1 12H      -0.081400
      9 C9           8.1630     0.0000     5.7640 c3         1 12H      -0.088400
     10 C10          9.6930    -0.0000     5.7630 c3         1 12H      -0.063400
     11 C11         10.2040     0.0000     7.2040 c3         1 12H      -0.183400
     12 C12         11.7110    -0.0000     7.2040 c          1 12H       0.891600
     13 O13         -0.4790     0.0000    -1.3460 oh         1 12H      -0.613800
     14 O14         12.3140    -0.0000     6.1570 o          1 12H      -0.857800
     15 O15         12.3830    -0.0000     8.3650 o          1 12H      -0.857800
     16 H11         -0.3610     0.8840     0.5110 h1         1 12H       0.017700
     17 H12         -0.3610    -0.8840     0.5110 h1         1 12H       0.017700
     18 H21          1.8900    -0.8840    -0.5110 hc         1 12H       0.053700
     19 H22          1.8900     0.8840    -0.5110 hc         1 12H       0.053700
     20 H31          1.6790    -0.8840     1.9520 hc         1 12H       0.039700
     21 H32          1.6790     0.8840     1.9520 hc         1 12H       0.039700
     22 H41          3.9310     0.8840     0.9300 hc         1 12H       0.042700
     23 H42          3.9310    -0.8840     0.9300 hc         1 12H       0.042700
     24 H51          3.7210    -0.8840     3.3930 hc         1 12H       0.038700
     25 H52          3.7210     0.8840     3.3930 hc         1 12H       0.038700
     26 H61          5.9720    -0.8840     2.3700 hc         1 12H       0.039700
     27 H62          5.9720     0.8840     2.3700 hc         1 12H       0.039700
     28 H71          5.7610    -0.8840     4.8330 hc         1 12H       0.035700
     29 H72          5.7610     0.8840     4.8330 hc         1 12H       0.035700
     30 H81          8.0120    -0.8840     3.8110 hc         1 12H       0.038700
     31 H82          8.0120     0.8840     3.8110 hc         1 12H       0.038700
     32 H91          7.8030     0.8840     6.2750 hc         1 12H       0.028700
     33 H92          7.8030    -0.8840     6.2750 hc         1 12H       0.028700
     34 H101        10.0530    -0.8840     5.2520 hc         1 12H       0.044700
     35 H102        10.0530     0.8840     5.2520 hc         1 12H       0.044700
     36 H111         9.8430    -0.8840     7.7150 hc         1 12H       0.026700
     37 H112         9.8430     0.8840     7.7150 hc         1 12H       0.026700
     38 H13         -1.4210     0.0000    -1.3450 ho         1 12H       0.397000
@<TRIPOS>BOND
     1     1     2 1   
     2     1    13 1   
     3     1    16 1   
     4     1    17 1   
     5     2     3 1   
     6     2    18 1   
     7     2    19 1   
     8     3     4 1   
     9     3    20 1   
    10     3    21 1   
    11     4     5 1   
    12     4    22 1   
    13     4    23 1   
    14     5     6 1   
    15     5    24 1   
    16     5    25 1   
    17     6     7 1   
    18     6    26 1   
    19     6    27 1   
    20     7     8 1   
    21     7    28 1   
    22     7    29 1   
    23     8     9 1   
    24     8    30 1   
    25     8    31 1   
    26     9    10 1   
    27     9    32 1   
    28     9    33 1   
    29    10    11 1   
    30    10    34 1   
    31    10    35 1   
    32    11    12 1   
    33    11    36 1   
    34    11    37 1   
    35    12    14 1   
    36    12    15 1   
    37    13    38 1   
@<TRIPOS>SUBSTRUCTURE
     1 12H         1 TEMP              0 ****  ****    0 ROOT
