@<TRIPOS>MOLECULE
12H
   38    37     1     0     0
SMALL
bcc


@<TRIPOS>ATOM
      1 C1         -0.0060    0.0000    0.0090 c3        1 12H      0.131400
      2 C2          1.5120   -0.0000    0.0090 c3        1 12H     -0.083400
      3 C3          2.0420    0.0000    1.4250 c3        1 12H     -0.079400
      4 C4          3.5560   -0.0000    1.4440 c3        1 12H     -0.078400
      5 C5          4.0860    0.0000    2.8620 c3        1 12H     -0.079400
      6 C6          5.6000    0.0000    2.8860 c3        1 12H     -0.079400
      7 C7          6.1270    0.0000    4.3050 c3        1 12H     -0.078400
      8 C8          7.6410    0.0000    4.3330 c3        1 12H     -0.078400
      9 C9          8.1690    0.0000    5.7520 c3        1 12H     -0.079400
     10 C10         9.6840   -0.0000    5.7800 c3        1 12H     -0.062400
     11 C11        10.2190    0.0000    7.1900 c3        1 12H     -0.193400
     12 C12        11.7570   -0.0000    7.2330 c         1 12H      0.907600
     13 O13        -0.4280   -0.0000   -1.3460 oh        1 12H     -0.602800
     14 O14        12.4060    0.0000    6.1470 o         1 12H     -0.853800
     15 O15        12.3010   -0.0010    8.3760 o         1 12H     -0.853800
     16 H11        -0.4020   -0.9130    0.5320 h1        1 12H      0.018700
     17 H12        -0.4010    0.9130    0.5310 h1        1 12H      0.018700
     18 H21         1.8820    0.9020   -0.5450 hc        1 12H      0.054700
     19 H22         1.8820   -0.9020   -0.5450 hc        1 12H      0.054700
     20 H31         1.6610    0.9030    1.9710 hc        1 12H      0.037700
     21 H32         1.6610   -0.9030    1.9710 hc        1 12H      0.037700
     22 H41         3.9390   -0.9030    0.8990 hc        1 12H      0.040700
     23 H42         3.9400    0.9020    0.8990 hc        1 12H      0.040700
     24 H51         3.7020   -0.9020    3.4070 hc        1 12H      0.036700
     25 H52         3.7020    0.9020    3.4070 hc        1 12H      0.036700
     26 H61         5.9850   -0.9020    2.3430 hc        1 12H      0.038700
     27 H62         5.9850    0.9020    2.3420 hc        1 12H      0.038700
     28 H71         5.7420    0.9020    4.8490 hc        1 12H      0.033700
     29 H72         5.7420   -0.9020    4.8490 hc        1 12H      0.033700
     30 H81         8.0280   -0.9020    3.7900 hc        1 12H      0.036700
     31 H82         8.0280    0.9020    3.7900 hc        1 12H      0.036700
     32 H91         7.7830    0.9020    6.2960 hc        1 12H      0.024700
     33 H92         7.7820   -0.9020    6.2960 hc        1 12H      0.024700
     34 H101       10.0780   -0.8990    5.2380 hc        1 12H      0.044700
     35 H102       10.0790    0.8990    5.2380 hc        1 12H      0.044700
     36 H111        9.8550    0.9030    7.7430 hc        1 12H      0.018700
     37 H112        9.8550   -0.9020    7.7430 hc        1 12H      0.018700
     38 H13        -1.3920    0.0000   -1.3330 ho        1 12H      0.394000
@<TRIPOS>BOND
     1    1    2 1   
     2    1   13 1   
     3    1   16 1   
     4    1   17 1   
     5    2    3 1   
     6    2   18 1   
     7    2   19 1   
     8    3    4 1   
     9    3   20 1   
    10    3   21 1   
    11    4    5 1   
    12    4   22 1   
    13    4   23 1   
    14    5    6 1   
    15    5   24 1   
    16    5   25 1   
    17    6    7 1   
    18    6   26 1   
    19    6   27 1   
    20    7    8 1   
    21    7   28 1   
    22    7   29 1   
    23    8    9 1   
    24    8   30 1   
    25    8   31 1   
    26    9   10 1   
    27    9   32 1   
    28    9   33 1   
    29   10   11 1   
    30   10   34 1   
    31   10   35 1   
    32   11   12 1   
    33   11   36 1   
    34   11   37 1   
    35   12   14 1   
    36   12   15 1   
    37   13   38 1   
@<TRIPOS>SUBSTRUCTURE
     1 12H         1 TEMP              0 ****  ****    0 ROOT
