@<TRIPOS>MOLECULE
12H
   38    37     1     0     0
SMALL
bcc


@<TRIPOS>ATOM
      1 C1           0.9600    -0.7410    -0.5420 c3         1 12H       0.129400
      2 C2           2.2120    -0.2840     0.1870 c3         1 12H      -0.079400
      3 C3           1.9470     0.0740     1.6340 c3         1 12H      -0.078400
      4 C4           1.3080     1.4350     1.8140 c3         1 12H      -0.079400
      5 C5           2.3000     2.5690     1.6650 c3         1 12H      -0.080400
      6 C6           1.6250     3.9140     1.8330 c3         1 12H      -0.076400
      7 C7           2.5880     5.0700     1.6580 c3         1 12H      -0.080400
      8 C8           3.4690     5.2870     2.8700 c3         1 12H      -0.072400
      9 C9           4.4320     6.4400     2.6870 c3         1 12H      -0.096400
     10 C10          3.7490     7.7910     2.7120 c3         1 12H      -0.046400
     11 C11          4.7530     8.9180     2.7960 c3         1 12H      -0.196400
     12 C12          5.3990     9.0050     4.1900 c          1 12H       0.907600
     13 O13          0.6890    -2.0780    -0.1430 oh         1 12H      -0.604800
     14 O14          5.0210     9.9320     4.9630 o          1 12H      -0.853800
     15 O15          6.2870     8.1550     4.4980 o          1 12H      -0.853800
     16 H11          1.1270    -0.7160    -1.6530 h1         1 12H       0.019700
     17 H12          0.0870    -0.0810    -0.2930 h1         1 12H       0.019700
     18 H21          2.9700    -1.1100     0.1460 hc         1 12H       0.052200
     19 H22          2.6340     0.6010    -0.3570 hc         1 12H       0.052200
     20 H31          2.9180     0.0480     2.1980 hc         1 12H       0.045200
     21 H32          1.2800    -0.7120     2.0800 hc         1 12H       0.045200
     22 H41          0.8480     1.4870     2.8370 hc         1 12H       0.034200
     23 H42          0.4760     1.5660     1.0730 hc         1 12H       0.034200
     24 H51          2.7870     2.5180     0.6560 hc         1 12H       0.041200
     25 H52          3.1140     2.4600     2.4290 hc         1 12H       0.041200
     26 H61          1.1510     3.9700     2.8480 hc         1 12H       0.030200
     27 H62          0.8000     4.0050     1.0770 hc         1 12H       0.030200
     28 H71          3.2290     4.8930     0.7550 hc         1 12H       0.036700
     29 H72          1.9990     6.0070     1.4660 hc         1 12H       0.036700
     30 H81          2.8260     5.4760     3.7700 hc         1 12H       0.029700
     31 H82          4.0540     4.3510     3.0730 hc         1 12H       0.029700
     32 H91          5.1990     6.4280     3.5150 hc         1 12H       0.062700
     33 H92          4.9840     6.3170     1.7190 hc         1 12H       0.062700
     34 H101         3.0590     7.8480     3.5950 hc         1 12H       0.012200
     35 H102         3.1190     7.9120     1.7900 hc         1 12H       0.012200
     36 H111         4.2400     9.8880     2.5770 hc         1 12H       0.020200
     37 H112         5.5600     8.7670     2.0350 hc         1 12H       0.020200
     38 H13         -0.1630    -2.3100    -0.5260 ho         1 12H       0.392000
@<TRIPOS>BOND
     1     1     2 1   
     2     1    13 1   
     3     1    16 1   
     4     1    17 1   
     5     2     3 1   
     6     2    18 1   
     7     2    19 1   
     8     3     4 1   
     9     3    20 1   
    10     3    21 1   
    11     4     5 1   
    12     4    22 1   
    13     4    23 1   
    14     5     6 1   
    15     5    24 1   
    16     5    25 1   
    17     6     7 1   
    18     6    26 1   
    19     6    27 1   
    20     7     8 1   
    21     7    28 1   
    22     7    29 1   
    23     8     9 1   
    24     8    30 1   
    25     8    31 1   
    26     9    10 1   
    27     9    32 1   
    28     9    33 1   
    29    10    11 1   
    30    10    34 1   
    31    10    35 1   
    32    11    12 1   
    33    11    36 1   
    34    11    37 1   
    35    12    14 1   
    36    12    15 1   
    37    13    38 1   
@<TRIPOS>SUBSTRUCTURE
     1 12H         1 TEMP              0 ****  ****    0 ROOT
