@<TRIPOS>MOLECULE
12I
   33    35     1     0     0
SMALL
bcc


@<TRIPOS>ATOM
      1 N1           0.0000     0.0000     0.0000 nb         1 12I      -0.624000
      2 C2           1.3120     0.0000     0.0000 ca         1 12I       0.642900
      3 C3          -0.6800    -0.0010     1.1550 ca         1 12I       0.405600
      4 N3           2.2210     0.0000     3.4570 nh         1 12I      -0.505300
      5 C4           0.0440    -0.0000     2.3720 ca         1 12I      -0.265600
      6 N4           4.5510    -0.5130     5.0090 n3         1 12I      -0.546600
      7 C5          -0.6450    -0.0010     3.5900 ca         1 12I      -0.054000
      8 C6          -2.0090    -0.0020     3.5900 ca         1 12I      -0.112000
      9 C7          -2.7240    -0.0020     2.3940 ca         1 12I      -0.073000
     10 C8           1.4590     0.0000     2.3080 ca         1 12I       0.547200
     11 C9           3.4300     0.8180     3.2870 c3         1 12I       0.148300
     12 C10          4.2050     0.8580     4.6070 c3         1 12I       0.153300
     13 C11          3.3420    -1.3290     5.1790 c3         1 12I       0.153300
     14 C17         -2.0820    -0.0010     1.1920 ca         1 12I      -0.154300
     15 C12          2.5660    -1.3690     3.8600 c3         1 12I       0.148300
     16 N9           2.0320     0.0000     1.1110 nb         1 12I      -0.674000
     17 C13          5.3620    -0.5110     6.2340 c3         1 12I       0.189100
     18 H2           1.8290    -0.0000    -0.9520 h5         1 12I      -0.002900
     19 H17         -2.6520    -0.0010     0.2700 ha         1 12I       0.121000
     20 H91C         4.0540     0.3830     2.5160 h1         1 12I       0.027700
     21 H92C         3.1470     1.8250     3.0050 h1         1 12I       0.027700
     22 H121         1.6590    -1.9450     3.9920 h1         1 12I       0.027700
     23 H122         3.1820    -1.8250     3.0940 h1         1 12I       0.027700
     24 H5          -0.0990    -0.0010     4.5260 ha         1 12I       0.122000
     25 H101         5.1120     1.4340     4.4740 h1         1 12I       0.014450
     26 H102         3.5890     1.3130     5.3730 h1         1 12I       0.014450
     27 H111         3.6240    -2.3360     5.4620 h1         1 12I       0.014450
     28 H112         2.7180    -0.8930     5.9510 h1         1 12I       0.014450
     29 H131         4.7920    -0.0730     7.0440 h1         1 12I       0.000700
     30 H132         5.6310    -1.5290     6.4900 h1         1 12I       0.000700
     31 H133         6.2620     0.0690     6.0710 h1         1 12I       0.000700
     32 H6          -2.5430    -0.0030     4.5320 ha         1 12I       0.106000
     33 H7          -3.8070    -0.0030     2.4210 ha         1 12I       0.104000
@<TRIPOS>BOND
     1     1     2 ar  
     2     1     3 ar  
     3     2    16 ar  
     4     2    18 1   
     5     3     5 ar  
     6     3    14 ar  
     7     4    10 1   
     8     4    11 1   
     9     4    15 1   
    10     5     7 ar  
    11     5    10 ar  
    12     6    12 1   
    13     6    13 1   
    14     6    17 1   
    15     7     8 ar  
    16     7    24 1   
    17     8     9 ar  
    18     8    32 1   
    19     9    14 ar  
    20     9    33 1   
    21    10    16 ar  
    22    11    12 1   
    23    11    20 1   
    24    11    21 1   
    25    12    25 1   
    26    12    26 1   
    27    13    15 1   
    28    13    27 1   
    29    13    28 1   
    30    14    19 1   
    31    15    22 1   
    32    15    23 1   
    33    17    29 1   
    34    17    30 1   
    35    17    31 1   
@<TRIPOS>SUBSTRUCTURE
     1 12I         1 TEMP              0 ****  ****    0 ROOT
