@<TRIPOS>MOLECULE
12I
   33    35     1     0     0
SMALL
bcc


@<TRIPOS>ATOM
      1 N1          -0.0070    -0.8260     0.1160 nb         1 12I      -0.705000
      2 C2           1.3200    -0.7360     0.1220 ca         1 12I       0.661900
      3 C3          -0.6510    -0.3720     1.2540 ca         1 12I       0.423600
      4 N3           2.3130     0.6480     3.3430 nh         1 12I      -0.741300
      5 C4           0.0770     0.1550     2.3690 ca         1 12I      -0.268600
      6 N4           4.4740     0.3890     5.3970 n3         1 12I      -0.732600
      7 C5          -0.6420     0.6910     3.4620 ca         1 12I      -0.088000
      8 C6          -2.0180     0.6550     3.4880 ca         1 12I      -0.146000
      9 C7          -2.7380     0.0880     2.4140 ca         1 12I      -0.104000
     10 C8           1.5380     0.1380     2.2670 ca         1 12I       0.678200
     11 C9           3.7180     0.9260     3.0620 c3         1 12I       0.167300
     12 C10          4.4930     1.3680     4.3170 c3         1 12I       0.152800
     13 C11          3.3680    -0.5460     5.2880 c3         1 12I       0.152800
     14 C17         -2.0790    -0.4090     1.3170 ca         1 12I      -0.181300
     15 C12          2.0900     0.0300     4.6420 c3         1 12I       0.167300
     16 N9           2.1370    -0.2910     1.1360 nb         1 12I      -0.766000
     17 C13          4.6060     0.9990     6.7000 c3         1 12I       0.155100
     18 H2           1.8580    -1.0750    -0.7890 h5         1 12I       0.053100
     19 H17         -2.6370    -0.8370     0.4690 ha         1 12I       0.154000
     20 H91C         3.7520     1.7620     2.3090 h1         1 12I       0.059700
     21 H92C         4.2470     0.0320     2.6190 h1         1 12I       0.059700
     22 H121         1.3230    -0.7900     4.5790 h1         1 12I       0.059700
     23 H122         1.6850     0.8390     5.3180 h1         1 12I       0.059700
     24 H5          -0.1050     1.1690     4.2960 ha         1 12I       0.143000
     25 H101         5.5700     1.5090     4.0210 h1         1 12I       0.052950
     26 H102         4.0950     2.3700     4.6550 h1         1 12I       0.052950
     27 H111         3.7390    -1.4090     4.6630 h1         1 12I       0.052950
     28 H112         3.0890    -0.9470     6.3010 h1         1 12I       0.052950
     29 H131         5.5190     1.6500     6.7010 h1         1 12I       0.033367
     30 H132         3.7210     1.6270     6.9950 h1         1 12I       0.033367
     31 H133         4.7400     0.1900     7.4650 h1         1 12I       0.033367
     32 H6          -2.5690     1.0750     4.3420 ha         1 12I       0.136000
     33 H7          -3.8370     0.0590     2.4630 ha         1 12I       0.137000
@<TRIPOS>BOND
     1     1     2 ar  
     2     1     3 ar  
     3     2    16 ar  
     4     2    18 1   
     5     3     5 ar  
     6     3    14 ar  
     7     4    10 1   
     8     4    11 1   
     9     4    15 1   
    10     5     7 ar  
    11     5    10 ar  
    12     6    12 1   
    13     6    13 1   
    14     6    17 1   
    15     7     8 ar  
    16     7    24 1   
    17     8     9 ar  
    18     8    32 1   
    19     9    14 ar  
    20     9    33 1   
    21    10    16 ar  
    22    11    12 1   
    23    11    20 1   
    24    11    21 1   
    25    12    25 1   
    26    12    26 1   
    27    13    15 1   
    28    13    27 1   
    29    13    28 1   
    30    14    19 1   
    31    15    22 1   
    32    15    23 1   
    33    17    29 1   
    34    17    30 1   
    35    17    31 1   
@<TRIPOS>SUBSTRUCTURE
     1 12I         1 TEMP              0 ****  ****    0 ROOT
