@<TRIPOS>MOLECULE
12J
   36    37     1     0     0
SMALL
bcc


@<TRIPOS>ATOM
      1 I            0.3120    -0.8910     0.8460 i          1 12J      -0.121900
      2 N            2.7590    -0.4010     3.5290 ns         1 12J      -0.462100
      3 C1           2.1880    -0.3400     0.3270 ca         1 12J       0.046900
      4 O1           2.3330     1.8030     2.9260 o          1 12J      -0.562100
      5 C2           3.0580     0.2960     1.2160 ca         1 12J      -0.111600
      6 O2           2.3340    -2.8680     7.5530 os         1 12J      -0.335900
      7 C3           4.3410     0.6720     0.8000 ca         1 12J      -0.098000
      8 C4           4.7570     0.4080    -0.5030 ca         1 12J      -0.115000
      9 C5           3.8920    -0.2290    -1.3920 ca         1 12J      -0.118000
     10 C6           2.6130    -0.5980    -0.9790 ca         1 12J      -0.103000
     11 C7           2.6620     0.6450     2.6220 c          1 12J       0.677700
     12 C8           2.4380    -0.3770     4.8960 ca         1 12J       0.100600
     13 C9           2.5100    -1.5940     5.6100 ca         1 12J      -0.220000
     14 C10          2.2170    -1.6170     6.9820 ca         1 12J       0.159100
     15 C11          1.8510    -0.4480     7.6600 ca         1 12J      -0.231000
     16 C12          1.7780     0.7440     6.9430 ca         1 12J      -0.073000
     17 C13          2.0640     0.7990     5.5830 ca         1 12J      -0.190000
     18 C14          1.9340    -3.0110     8.9280 c3         1 12J       0.141100
     19 C15          1.6140    -4.4870     9.0920 c3         1 12J      -0.110600
     20 C16          3.0610    -2.5860     9.8490 c3         1 12J      -0.110600
     21 HN           3.0000    -1.2960     3.1620 hn         1 12J       0.323500
     22 H3           5.0130     1.1860     1.5050 ha         1 12J       0.151000
     23 H4           5.7650     0.7060    -0.8280 ha         1 12J       0.143000
     24 H5           4.2150    -0.4380    -2.4230 ha         1 12J       0.142000
     25 H6           1.9370    -1.0940    -1.6930 ha         1 12J       0.149000
     26 H9           2.7920    -2.5370     5.1190 ha         1 12J       0.146000
     27 H11          1.6280    -0.4530     8.7340 ha         1 12J       0.138000
     28 H12          1.4890     1.6700     7.4650 ha         1 12J       0.135000
     29 H13          1.9920     1.7620     5.0550 ha         1 12J       0.173000
     30 H14          1.0090    -2.4000     9.1220 h1         1 12J       0.050700
     31 H15          1.3170    -4.6830    10.1490 hc         1 12J       0.047700
     32 H15A         2.5070    -5.1080     8.8410 hc         1 12J       0.047700
     33 H15B         0.7780    -4.7780     8.4130 hc         1 12J       0.047700
     34 H16          3.3370    -1.5200     9.6630 hc         1 12J       0.047700
     35 H16A         3.9640    -3.2170     9.6700 hc         1 12J       0.047700
     36 H16B         2.7430    -2.7010    10.9120 hc         1 12J       0.047700
@<TRIPOS>BOND
     1     1     3 1   
     2     2    11 1   
     3     2    12 1   
     4     2    21 1   
     5     3     5 ar  
     6     3    10 ar  
     7     4    11 2   
     8     5     7 ar  
     9     5    11 1   
    10     6    14 1   
    11     6    18 1   
    12     7     8 ar  
    13     7    22 1   
    14     8     9 ar  
    15     8    23 1   
    16     9    10 ar  
    17     9    24 1   
    18    10    25 1   
    19    12    13 ar  
    20    12    17 ar  
    21    13    14 ar  
    22    13    26 1   
    23    14    15 ar  
    24    15    16 ar  
    25    15    27 1   
    26    16    17 ar  
    27    16    28 1   
    28    17    29 1   
    29    18    19 1   
    30    18    20 1   
    31    18    30 1   
    32    19    31 1   
    33    19    32 1   
    34    19    33 1   
    35    20    34 1   
    36    20    35 1   
    37    20    36 1   
@<TRIPOS>SUBSTRUCTURE
     1 12J         1 TEMP              0 ****  ****    0 ROOT
