@<TRIPOS>MOLECULE
molecule
   36    37     1     0     0
SMALL
bcc


@<TRIPOS>ATOM
      1 I            0.0000     0.0000     0.0000 i          1 12J      -0.108900
      2 N            2.7400     0.0020     3.6560 ns         1 12J      -0.474100
      3 C1           2.0950     0.0000     0.0000 ca         1 12J       0.096900
      4 O1           0.8460     0.0030     2.4960 o          1 12J      -0.561100
      5 C2           2.7950     0.0000     1.2080 ca         1 12J      -0.126600
      6 O2          -1.0780    -1.0000     6.3690 os         1 12J      -0.321900
      7 C3           4.1910    -0.0000     1.1980 ca         1 12J      -0.104000
      8 C4           4.8690    -0.0000    -0.0020 ca         1 12J      -0.125000
      9 C5           4.1700    -0.0020    -1.1960 ca         1 12J      -0.106000
     10 C6           2.7870    -0.0070    -1.1940 ca         1 12J      -0.105000
     11 C7           2.0610     0.0020     2.4910 c          1 12J       0.660700
     12 C8           2.0490     0.1060     4.8670 ca         1 12J       0.087600
     13 C9           0.8140    -0.5070     5.0170 ca         1 12J      -0.156000
     14 C10          0.1320    -0.4020     6.2190 ca         1 12J       0.160100
     15 C11          0.6870     0.3140     7.2700 ca         1 12J      -0.238000
     16 C12          1.9180     0.9230     7.1200 ca         1 12J      -0.076000
     17 C13          2.6030     0.8160     5.9250 ca         1 12J      -0.199000
     18 C14         -1.7770    -0.7570     7.5910 c3         1 12J       0.138100
     19 C15         -3.2790    -0.9420     7.3670 c3         1 12J      -0.105600
     20 C16         -1.2960    -1.7420     8.6590 c3         1 12J      -0.105600
     21 HN           3.7340    -0.1170     3.6550 hn         1 12J       0.324500
     22 H3           4.7410     0.0000     2.1320 ha         1 12J       0.128000
     23 H4           5.9530     0.0010    -0.0100 ha         1 12J       0.137000
     24 H5           4.7080    -0.0050    -2.1370 ha         1 12J       0.138000
     25 H6           2.2460    -0.0080    -2.1330 ha         1 12J       0.148000
     26 H9           0.4170    -1.1270     4.2220 ha         1 12J       0.174000
     27 H11          0.1530     0.3990     8.2080 ha         1 12J       0.137000
     28 H12          2.3500     1.4790     7.9430 ha         1 12J       0.130000
     29 H13          3.5680     1.2950     5.8100 ha         1 12J       0.128000
     30 H14         -1.5840     0.2560     7.9220 h1         1 12J       0.047700
     31 H15         -3.8050    -0.7980     8.3040 hc         1 12J       0.046533
     32 H15A        -3.4690    -1.9420     6.9970 hc         1 12J       0.046533
     33 H15B        -3.6280    -0.2160     6.6420 hc         1 12J       0.046533
     34 H16         -0.4570    -2.3100     8.2740 hc         1 12J       0.046533
     35 H16A        -2.1020    -2.4190     8.9150 hc         1 12J       0.046533
     36 H16B        -0.9880    -1.1960     9.5420 hc         1 12J       0.046533
@<TRIPOS>BOND
     1     1     3 1
     2     2    11 1
     3     2    12 1
     4     3     5 ar
     5     3    10 ar
     6     4    11 2
     7     5     7 ar
     8     5    11 1
     9     6    14 1
    10     6    18 1
    11     7     8 ar
    12     8     9 ar
    13     9    10 ar
    14    12    13 ar
    15    12    17 ar
    16    13    14 ar
    17    14    15 ar
    18    15    16 ar
    19    16    17 ar
    20    18    19 1
    21    18    20 1
    22     2    21 1
    23     7    22 1
    24     8    23 1
    25     9    24 1
    26    10    25 1
    27    13    26 1
    28    15    27 1
    29    16    28 1
    30    17    29 1
    31    18    30 1
    32    19    31 1
    33    19    32 1
    34    19    33 1
    35    20    34 1
    36    20    35 1
    37    20    36 1
@<TRIPOS>SUBSTRUCTURE
     1 12J         1 TEMP              0 ****  ****    0 ROOT
