@<TRIPOS>MOLECULE
molecule
   25    25     1     0     0
SMALL
bcc


@<TRIPOS>ATOM
      1 C1           0.0000     0.0000     0.0000 c          1 12K       0.992600
      2 O2           1.2160     0.0000     0.0000 o          1 12K      -0.876800
      3 N3          -0.6740     0.0000     1.1670 ns         1 12K      -0.628900
      4 C4           0.0580     0.0000     2.4350 c3         1 12K       0.149400
      5 C5           0.9370    -1.2490     2.5180 c3         1 12K      -0.093100
      6 C6          -0.9370     0.0000     3.5980 c3         1 12K      -0.084400
      7 C7          -1.8160     1.2500     3.5160 c3         1 12K      -0.075400
      8 C8          -0.9370     2.4990     3.5980 c3         1 12K      -0.078400
      9 C9           0.0590     2.4990     2.4350 c3         1 12K      -0.075400
     10 C10          0.9370     1.2500     2.5170 c3         1 12K      -0.084400
     11 H1          -1.6740    -0.0520     1.1670 hn         1 12K       0.282500
     12 H2           0.4020    -2.0950     2.1060 hc         1 12K       0.031700
     13 H3           1.8470    -1.0870     1.9520 hc         1 12K       0.031700
     14 H4           1.1860    -1.4470     3.5530 hc         1 12K       0.031700
     15 H5          -1.5610    -0.8830     3.5380 hc         1 12K       0.040700
     16 H6          -0.3950     0.0020     4.5360 hc         1 12K       0.040700
     17 H7          -2.3550     1.2500     2.5770 hc         1 12K       0.037950
     18 H8          -2.5180     1.2500     4.3410 hc         1 12K       0.037950
     19 H9          -1.5610     3.3820     3.5370 hc         1 12K       0.019700
     20 H10         -0.3950     2.4960     4.5360 hc         1 12K       0.019700
     21 H11          0.6820     3.3820     2.4960 hc         1 12K       0.037950
     22 H12         -0.4830     2.4970     1.4970 hc         1 12K       0.037950
     23 H13          1.6400     1.2500     1.6930 hc         1 12K       0.040700
     24 H14          1.4750     1.2500     3.4580 hc         1 12K       0.040700
     25 OXT         -0.6730     0.0050    -1.1660 o          1 12K      -0.876800
@<TRIPOS>BOND
     1     5     4 1
     2     1     3 1
     3     1     2 1
     4     3     4 1
     5     4     6 1
     6     4    10 1
     7     6     7 1
     8     7     8 1
     9    10     9 1
    10     9     8 1
    11     3    11 1
    12     5    12 1
    13     5    13 1
    14     5    14 1
    15     6    15 1
    16     6    16 1
    17     7    17 1
    18     7    18 1
    19     8    19 1
    20     8    20 1
    21     9    21 1
    22     9    22 1
    23    10    23 1
    24    10    24 1
    25     1    25 1
@<TRIPOS>SUBSTRUCTURE
     1 12K         1 TEMP              0 ****  ****    0 ROOT
