@<TRIPOS>MOLECULE
12M
   22    22     1     0     0
SMALL
bcc


@<TRIPOS>ATOM
      1 CAH          0.1510    -0.3700    -0.1170 c3         1 12M      -0.092100
      2 CAD          1.4220     0.3890     0.1630 c3         1 12M      -0.039100
      3 CAA          1.9970     0.1900     1.5210 ca         1 12M      -0.072300
      4 CAC          1.3970    -0.6470     2.4660 ca         1 12M      -0.131000
      5 CAG          1.9580    -0.8150     3.7310 ca         1 12M      -0.127000
      6 CAI          3.1310    -0.1440     4.0680 ca         1 12M      -0.138000
      7 CAE          3.7420     0.6950     3.1380 ca         1 12M      -0.099000
      8 CAB          3.1840     0.8660     1.8680 ca         1 12M      -0.093300
      9 CAF          3.8290     1.7620     0.8620 c3         1 12M       0.176700
     10 OAJ          5.0060     2.3360     1.4150 oh         1 12M      -0.598800
     11 HAH1        -0.1970    -0.1520    -1.1560 hc         1 12M       0.036700
     12 HAH2         0.3140    -1.4710    -0.0270 hc         1 12M       0.036700
     13 HAH3        -0.6580    -0.0710     0.5920 hc         1 12M       0.036700
     14 HAD1         1.2280     1.4890     0.0160 hc         1 12M       0.046700
     15 HAD2         2.1980     0.0920    -0.5980 hc         1 12M       0.046700
     16 HAC          0.4690    -1.1860     2.2170 ha         1 12M       0.132000
     17 HAG          1.4720    -1.4780     4.4610 ha         1 12M       0.129000
     18 HAI          3.5760    -0.2740     5.0650 ha         1 12M       0.131000
     19 HAE          4.6700     1.2280     3.3980 ha         1 12M       0.153000
     20 HAF1         3.1150     2.5820     0.5690 h1         1 12M       0.030700
     21 HAF2         4.0960     1.1710    -0.0590 h1         1 12M       0.030700
     22 HAJ          5.3770     2.9000     0.7270 ho         1 12M       0.402000
@<TRIPOS>BOND
     1     1     2 1   
     2     1    11 1   
     3     1    12 1   
     4     1    13 1   
     5     2     3 1   
     6     2    14 1   
     7     2    15 1   
     8     3     4 ar  
     9     3     8 ar  
    10     4     5 ar  
    11     4    16 1   
    12     5     6 ar  
    13     5    17 1   
    14     6     7 ar  
    15     6    18 1   
    16     7     8 ar  
    17     7    19 1   
    18     8     9 1   
    19     9    10 1   
    20     9    20 1   
    21     9    21 1   
    22    10    22 1   
@<TRIPOS>SUBSTRUCTURE
     1 12M         1 TEMP              0 ****  ****    0 ROOT
