@<TRIPOS>MOLECULE
molecule
   22    22     1     0     0
SMALL
bcc


@<TRIPOS>ATOM
      1 CAH          0.0000     0.0000     0.0000 c3         1 12M      -0.091100
      2 CAD          1.5300     0.0000     0.0000 c3         1 12M      -0.042100
      3 CAA          2.0320     0.0000     1.4210 ca         1 12M      -0.079300
      4 CAC          2.3610     1.1930     2.0380 ca         1 12M      -0.127000
      5 CAG          2.8210     1.1930     3.3410 ca         1 12M      -0.126000
      6 CAI          2.9530     0.0010     4.0280 ca         1 12M      -0.136000
      7 CAE          2.6240    -1.1910     3.4110 ca         1 12M      -0.098000
      8 CAB          2.1590    -1.1920     2.1100 ca         1 12M      -0.087300
      9 CAF          1.8000    -2.4920     1.4380 c3         1 12M       0.188700
     10 OAJ          2.0230    -3.5730     2.3440 oh         1 12M      -0.611800
     11 HAH1        -0.3610    -0.7780    -0.6610 hc         1 12M       0.037367
     12 HAH2        -0.3610    -0.1840     1.0050 hc         1 12M       0.037367
     13 HAH3        -0.3610     0.9620    -0.3430 hc         1 12M       0.037367
     14 HAD1         1.8910     0.8850    -0.5110 hc         1 12M       0.046700
     15 HAD2         1.8910    -0.8840    -0.5110 hc         1 12M       0.046700
     16 HAC          2.2580     2.1270     1.5000 ha         1 12M       0.130000
     17 HAG          3.0790     2.1280     3.8240 ha         1 12M       0.128000
     18 HAI          3.3150     0.0010     5.0490 ha         1 12M       0.129000
     19 HAE          2.7250    -2.1250     3.9500 ha         1 12M       0.152000
     20 HAF1         0.7560    -2.4730     1.1490 h1         1 12M       0.031700
     21 HAF2         2.4160    -2.6250     0.5570 h1         1 12M       0.031700
     22 HAJ          1.8250    -4.3890     1.9150 ho         1 12M       0.404000
@<TRIPOS>BOND
     1     1     2 1   
     2     1    11 1   
     3     1    12 1   
     4     1    13 1   
     5     2     3 1   
     6     2    14 1   
     7     2    15 1   
     8     3     4 ar  
     9     3     8 ar  
    10     4     5 ar  
    11     4    16 1   
    12     5     6 ar  
    13     5    17 1   
    14     6     7 ar  
    15     6    18 1   
    16     7     8 ar  
    17     7    19 1   
    18     8     9 1   
    19     9    10 1   
    20     9    20 1   
    21     9    21 1   
    22    10    22 1   
@<TRIPOS>SUBSTRUCTURE
     1 12M         1 TEMP              0 ****  ****    0 ROOT
