@<TRIPOS>MOLECULE
12M
   22    22     1     0     0
SMALL
bcc


@<TRIPOS>ATOM
      1 CAH        -0.0270    0.0440   -0.0380 c3        1 12M     -0.090100
      2 CAD         1.4780   -0.0750    0.0010 c3        1 12M     -0.040100
      3 CAA         2.0050   -0.0520    1.3950 ca        1 12M     -0.076300
      4 CAC         2.3240    1.1820    1.9780 ca        1 12M     -0.131000
      5 CAG         2.8190    1.2500    3.2770 ca        1 12M     -0.127000
      6 CAI         3.0030    0.0800    4.0130 ca        1 12M     -0.136000
      7 CAE         2.6920   -1.1540    3.4440 ca        1 12M     -0.101000
      8 CAB         2.1930   -1.2290    2.1390 ca        1 12M     -0.085300
      9 CAF         1.8680   -2.5520    1.5250 c3        1 12M      0.176700
     10 OAJ         1.9650   -3.5720    2.5090 oh        1 12M     -0.599800
     11 HAH1       -0.3570    0.9980    0.4390 hc        1 12M      0.036367
     12 HAH2       -0.3850    0.0320   -1.0950 hc        1 12M      0.036367
     13 HAH3       -0.5070   -0.8040    0.5090 hc        1 12M      0.036367
     14 HAD1        1.9290    0.7760   -0.5790 hc        1 12M      0.045200
     15 HAD2        1.7940   -1.0200   -0.5160 hc        1 12M      0.045200
     16 HAC         2.1780    2.1060    1.3980 ha        1 12M      0.130000
     17 HAG         3.0640    2.2250    3.7210 ha        1 12M      0.130000
     18 HAI         3.3930    0.1280    5.0390 ha        1 12M      0.131000
     19 HAE         2.8340   -2.0810    4.0220 ha        1 12M      0.153000
     20 HAF1        2.5920   -2.7690    0.6900 h1        1 12M      0.032200
     21 HAF2        0.8240   -2.5340    1.1050 h1        1 12M      0.032200
     22 HAJ         1.7380   -4.3960    2.0630 ho        1 12M      0.402000
@<TRIPOS>BOND
     1    1    2 1   
     2    1   11 1   
     3    1   12 1   
     4    1   13 1   
     5    2    3 1   
     6    2   14 1   
     7    2   15 1   
     8    3    4 ar  
     9    3    8 ar  
    10    4    5 ar  
    11    4   16 1   
    12    5    6 ar  
    13    5   17 1   
    14    6    7 ar  
    15    6   18 1   
    16    7    8 ar  
    17    7   19 1   
    18    8    9 1   
    19    9   10 1   
    20    9   20 1   
    21    9   21 1   
    22   10   22 1   
@<TRIPOS>SUBSTRUCTURE
     1 12M         1 TEMP              0 ****  ****    0 ROOT
