@<TRIPOS>MOLECULE
12N
   27    27     1     0     0
SMALL
bcc


@<TRIPOS>ATOM
      1 N29          0.0000     0.0000     0.0000 nz         1 12N       0.016400
      2 C30          1.4690     0.0000     0.0000 c3         1 12N       0.035500
      3 C31          1.9800     0.0000     1.4420 c3         1 12N      -0.193400
      4 C32          1.5750     1.3060     2.1270 cy         1 12N      -0.099700
      5 C33          2.1130     1.4430     3.5600 cy         1 12N      -0.058900
      6 C34          0.1660     1.2680     2.7420 cy         1 12N      -0.058900
      7 C35          0.7510     2.0510     3.9310 cy         1 12N      -0.002400
      8 O36          1.5030    -2.4150    -0.0490 oh         1 12N      -0.597800
      9 C37          1.9790    -1.2480    -0.7230 c3         1 12N       0.047100
     10 C40          1.4760    -1.2470    -2.1430 c          1 12N       0.907600
     11 H37         -0.3340    -0.0820    -0.9400 hn         1 12N       0.234467
     12 H38          1.8300     0.8850    -0.5100 hx         1 12N       0.086700
     13 H39          2.8730    -0.5340     1.7430 hc         1 12N       0.083700
     14 H40          2.3650     0.7170     0.7280 hc         1 12N       0.083700
     15 H41          1.7460     2.1930     1.5290 hc         1 12N       0.043700
     16 H42          2.4920     0.5190     3.9800 hc         1 12N       0.038950
     17 H43          2.7400     2.1910     3.0900 hc         1 12N       0.038950
     18 H44         -0.1540     0.2680     3.0090 hc         1 12N       0.038950
     19 H45         -0.5600     1.8390     2.1750 hc         1 12N       0.038950
     20 H46          0.3800     1.7080     4.8890 hc         1 12N       0.031200
     21 H47          0.7150     3.1250     3.7900 hc         1 12N       0.031200
     22 H48          2.1480    -3.1000    -0.1140 ho         1 12N       0.419000
     23 H49          3.0620    -1.2480    -0.7230 h1         1 12N       0.037700
     24 H2          -0.3340     0.8550     0.3990 hn         1 12N       0.234467
     25 OXT          0.7090    -2.1040    -2.5130 o          1 12N      -0.835300
     26 O38          1.8810    -0.2940    -2.9980 o          1 12N      -0.835300
     27 H293        -0.3340    -0.7730     0.5410 hn         1 12N       0.234467
@<TRIPOS>BOND
     1     1     2 1   
     2     1    11 1   
     3     1    24 1   
     4     1    27 1   
     5     2     3 1   
     6     2     9 1   
     7     2    12 1   
     8     3     4 1   
     9     3    13 1   
    10     3    14 1   
    11     4     5 1   
    12     4     6 1   
    13     4    15 1   
    14     5     7 1   
    15     5    16 1   
    16     5    17 1   
    17     6     7 1   
    18     6    18 1   
    19     6    19 1   
    20     7    20 1   
    21     7    21 1   
    22     8     9 1   
    23     8    22 1   
    24     9    10 1   
    25     9    23 1   
    26    10    25 1   
    27    10    26 1   
@<TRIPOS>SUBSTRUCTURE
     1 12N         1 TEMP              0 ****  ****    0 ROOT
