@<TRIPOS>MOLECULE
12O
   58    62     1     0     0
SMALL
bcc


@<TRIPOS>ATOM
      1 O33         -0.8500     0.5310    -3.2830 o          1 12O      -0.839800
      2 C31         -0.5750     0.2560    -2.0780 c          1 12O       0.904600
      3 O32         -1.4470     0.0910    -1.1790 o          1 12O      -0.839800
      4 C26          0.9130     0.0970    -1.6720 c3         1 12O      -0.177700
      5 C27          1.4720     1.4840    -1.4140 c3         1 12O      -0.058400
      6 C28          2.9060     1.4570    -0.9270 c3         1 12O      -0.073400
      7 C29          3.7240     0.3800    -1.6120 c3         1 12O      -0.077400
      8 C30          3.1100    -0.0440    -2.9290 c3         1 12O      -0.056400
      9 C25          1.7110    -0.6300    -2.7570 c3         1 12O      -0.110700
     10 C23          1.8260    -2.1150    -2.4160 c          1 12O       0.669100
     11 O24          2.8010    -2.5390    -1.7540 o          1 12O      -0.648100
     12 N14          0.9090    -3.0440    -2.9220 n          1 12O      -0.450800
     13 C15         -0.3930    -2.6750    -3.4350 c3         1 12O       0.062000
     14 C16         -1.5480    -2.9220    -2.4630 c3         1 12O      -0.093100
     15 C17         -1.4120    -4.1870    -1.7010 ca         1 12O      -0.029300
     16 C22         -2.4980    -4.6670    -0.9540 ca         1 12O      -0.135000
     17 C21         -2.3830    -5.8340    -0.2060 ca         1 12O      -0.132000
     18 C20         -1.1770    -6.5360    -0.1880 ca         1 12O      -0.154000
     19 C19         -0.0900    -6.0660    -0.9210 ca         1 12O      -0.124000
     20 C18         -0.2030    -4.8990    -1.6850 ca         1 12O      -0.104300
     21 C13          0.9970    -4.4240    -2.4700 c3         1 12O       0.109000
     22 C12          1.1670    -5.4230    -3.6620 c3         1 12O       0.094000
     23 N8           2.2860    -5.1650    -4.5220 n          1 12O      -0.498400
     24 C7           3.6400    -5.3890    -4.1410 c          1 12O       0.725100
     25 O11          4.0080    -6.1160    -3.2150 o          1 12O      -0.569000
     26 C2           4.4970    -4.6420    -5.1210 ca         1 12O      -0.131100
     27 C9           2.2190    -4.2950    -5.6500 c          1 12O       0.725100
     28 O10          1.1830    -3.9460    -6.2180 o          1 12O      -0.569000
     29 C3           3.6340    -3.9750    -6.0350 ca         1 12O      -0.131100
     30 C4           4.1400    -3.1890    -7.0470 ca         1 12O      -0.067500
     31 C5           5.5390    -3.0680    -7.1460 ca         1 12O      -0.124500
     32 C6           6.3820    -3.7190    -6.2530 ca         1 12O      -0.124500
     33 C1           5.8660    -4.5220    -5.2180 ca         1 12O      -0.067500
     34 H2           0.9550    -0.4920    -0.7160 hc         1 12O       0.053700
     35 H3           1.4020     2.0810    -2.3610 hc         1 12O       0.044200
     36 H4           0.8250     1.9920    -0.6510 hc         1 12O       0.044200
     37 H5           2.9240     1.2810     0.1810 hc         1 12O       0.018700
     38 H6           3.3720     2.4610    -1.1050 hc         1 12O       0.018700
     39 H7           4.7680     0.7480    -1.7870 hc         1 12O       0.037700
     40 H8           3.7920    -0.5240    -0.9480 hc         1 12O       0.037700
     41 H9           3.0370     0.8450    -3.6090 hc         1 12O       0.032200
     42 H10          3.7760    -0.7980    -3.4210 hc         1 12O       0.032200
     43 H11          1.1710    -0.4900    -3.7390 hc         1 12O       0.098700
     44 H12         -0.5540    -3.2860    -4.3720 h1         1 12O       0.083700
     45 H13         -0.4210    -1.5820    -3.7240 h1         1 12O       0.083700
     46 H14         -1.6110    -2.0520    -1.7400 hc         1 12O       0.097700
     47 H15         -2.5040    -2.9240    -3.0510 hc         1 12O       0.097700
     48 H16         -3.4410    -4.1000    -0.9580 ha         1 12O       0.135000
     49 H17         -3.2400    -6.2000     0.3770 ha         1 12O       0.117000
     50 H18         -1.0810    -7.4530     0.4100 ha         1 12O       0.117000
     51 H19          0.8670    -6.6090    -0.8950 ha         1 12O       0.128000
     52 H20          1.9120    -4.5300    -1.8070 h1         1 12O       0.104700
     53 H21          0.2380    -5.4090    -4.2990 h1         1 12O       0.070700
     54 H22          1.3050    -6.4480    -3.2160 h1         1 12O       0.070700
     55 H23          3.4750    -2.6640    -7.7480 ha         1 12O       0.155000
     56 H24          5.9650    -2.4380    -7.9420 ha         1 12O       0.133500
     57 H25          7.4720    -3.6030    -6.3450 ha         1 12O       0.133500
     58 H26          6.5350    -5.0280    -4.5070 ha         1 12O       0.155000
@<TRIPOS>BOND
     1     1     2 1   
     2     2     3 1   
     3     2     4 1   
     4     4     5 1   
     5     4     9 1   
     6     4    34 1   
     7     5     6 1   
     8     5    35 1   
     9     5    36 1   
    10     6     7 1   
    11     6    37 1   
    12     6    38 1   
    13     7     8 1   
    14     7    39 1   
    15     7    40 1   
    16     8     9 1   
    17     8    41 1   
    18     8    42 1   
    19     9    10 1   
    20     9    43 1   
    21    10    11 2   
    22    10    12 1   
    23    12    13 1   
    24    12    21 1   
    25    13    14 1   
    26    13    44 1   
    27    13    45 1   
    28    14    15 1   
    29    14    46 1   
    30    14    47 1   
    31    15    16 ar  
    32    15    20 ar  
    33    16    17 ar  
    34    16    48 1   
    35    17    18 ar  
    36    17    49 1   
    37    18    19 ar  
    38    18    50 1   
    39    19    20 ar  
    40    19    51 1   
    41    20    21 1   
    42    21    22 1   
    43    21    52 1   
    44    22    23 1   
    45    22    53 1   
    46    22    54 1   
    47    23    24 1   
    48    23    27 1   
    49    24    25 2   
    50    24    26 1   
    51    26    29 ar  
    52    26    33 ar  
    53    27    28 2   
    54    27    29 1   
    55    29    30 ar  
    56    30    31 ar  
    57    30    55 1   
    58    31    32 ar  
    59    31    56 1   
    60    32    33 ar  
    61    32    57 1   
    62    33    58 1   
@<TRIPOS>SUBSTRUCTURE
     1 12O         1 TEMP              0 ****  ****    0 ROOT
