@<TRIPOS>MOLECULE
12O
   58    62     1     0     0
SMALL
bcc


@<TRIPOS>ATOM
      1 O33          0.0000     0.0000     0.0000 o          1 12O      -0.897800
      2 C31          1.3420     0.0000     0.0000 c          1 12O       0.993600
      3 O32          1.9470     0.0000     1.0460 o          1 12O      -0.897800
      4 C26          2.0950    -0.0000    -1.3050 c3         1 12O      -0.139700
      5 C27          2.4030    -1.4420    -1.7160 c3         1 12O      -0.008400
      6 C28          3.1690    -1.4420    -3.0410 c3         1 12O      -0.032400
      7 C29          4.4780    -0.6680    -2.8740 c3         1 12O      -0.018400
      8 C30          4.1700     0.7730    -2.4630 c3         1 12O      -0.042400
      9 C25          3.4050     0.7730    -1.1390 c3         1 12O      -0.105700
     10 C23          3.1020     2.1940    -0.7340 c          1 12O       0.623100
     11 O24          1.9610     2.6050    -0.7730 o          1 12O      -0.612100
     12 N14          4.0970     3.0050    -0.3280 n          1 12O      -0.166800
     13 C15          5.4710     2.5060    -0.1580 c3         1 12O       0.043000
     14 C16          6.3610     3.2240    -1.1720 c3         1 12O      -0.000100
     15 C17          6.1050     4.7080    -1.1550 ca         1 12O      -0.069300
     16 C22          7.0880     5.5370    -1.6780 ca         1 12O      -0.105000
     17 C21          6.9130     6.9060    -1.7020 ca         1 12O      -0.112000
     18 C20          5.7500     7.4580    -1.2010 ca         1 12O      -0.092000
     19 C19          4.7730     6.6370    -0.6770 ca         1 12O      -0.166000
     20 C18          4.9500     5.2610    -0.6480 ca         1 12O      -0.077300
     21 C13          3.8560     4.4250    -0.0440 c3         1 12O       0.086000
     22 C12          2.5090     4.8410    -0.6380 c3         1 12O      -0.006000
     23 N8           2.2710     6.2590    -0.3590 n          1 12O      -0.123400
     24 C7           2.3040     7.2330    -1.2860 c          1 12O       0.651100
     25 O11          2.5330     7.0790    -2.4680 o          1 12O      -0.601500
     26 C2           2.0150     8.5240    -0.6240 ca         1 12O      -0.166600
     27 C9           1.9830     6.7580     0.8570 c          1 12O       0.651100
     28 O10          1.8820     6.1130     1.8810 o          1 12O      -0.601500
     29 C3           1.8140     8.2220     0.7380 ca         1 12O      -0.166600
     30 C4           1.5200     9.2380     1.6330 ca         1 12O      -0.026000
     31 C5           1.4250    10.5450     1.1810 ca         1 12O      -0.098500
     32 C6           1.6210    10.8410    -0.1550 ca         1 12O      -0.098500
     33 C1           1.9160     9.8350    -1.0610 ca         1 12O      -0.026000
     34 H2           1.4950     0.4710    -2.0740 hc         1 12O       0.044700
     35 H3           3.0080    -1.9130    -0.9510 hc         1 12O       0.019200
     36 H4           1.4750    -1.9880    -1.8370 hc         1 12O       0.019200
     37 H5           2.5650    -0.9680    -3.8050 hc         1 12O       0.001700
     38 H6           3.3890    -2.4630    -3.3290 hc         1 12O       0.001700
     39 H7           5.0170    -0.6670    -3.8140 hc         1 12O      -0.000300
     40 H8           5.0800    -1.1400    -2.1070 hc         1 12O      -0.000300
     41 H9           5.0980     1.3190    -2.3430 hc         1 12O       0.011700
     42 H10          3.5650     1.2440    -3.2290 hc         1 12O       0.011700
     43 H11          4.0080     0.2970    -0.3760 hc         1 12O       0.059700
     44 H12          5.4900     1.4420    -0.3600 h1         1 12O       0.037700
     45 H13          5.8130     2.7430     0.8430 h1         1 12O       0.037700
     46 H14          7.3960     3.0500    -0.9060 hc         1 12O       0.028200
     47 H15          6.1280     2.8470    -2.1610 hc         1 12O       0.028200
     48 H16          8.0010     5.1060    -2.0720 ha         1 12O       0.098000
     49 H17          7.6840     7.5450    -2.1150 ha         1 12O       0.094000
     50 H18          5.6070     8.5320    -1.2170 ha         1 12O       0.096000
     51 H19          3.8610     7.0700    -0.2840 ha         1 12O       0.136000
     52 H20          3.8420     4.5760     1.0290 h1         1 12O       0.049700
     53 H21          1.7190     4.2480    -0.1940 h1         1 12O       0.101200
     54 H22          2.5220     4.6810    -1.7100 h1         1 12O       0.101200
     55 H23          1.3650     9.0120     2.6810 ha         1 12O       0.115000
     56 H24          1.1950    11.3400     1.8800 ha         1 12O       0.102500
     57 H25          1.5440    11.8670    -0.4960 ha         1 12O       0.102500
     58 H26          2.0690    10.0720    -2.1070 ha         1 12O       0.115000
@<TRIPOS>BOND
     1     1     2 1   
     2     2     3 1   
     3     2     4 1   
     4     4     5 1   
     5     4     9 1   
     6     4    34 1   
     7     5     6 1   
     8     5    35 1   
     9     5    36 1   
    10     6     7 1   
    11     6    37 1   
    12     6    38 1   
    13     7     8 1   
    14     7    39 1   
    15     7    40 1   
    16     8     9 1   
    17     8    41 1   
    18     8    42 1   
    19     9    10 1   
    20     9    43 1   
    21    10    11 2   
    22    10    12 1   
    23    12    13 1   
    24    12    21 1   
    25    13    14 1   
    26    13    44 1   
    27    13    45 1   
    28    14    15 1   
    29    14    46 1   
    30    14    47 1   
    31    15    16 ar  
    32    15    20 ar  
    33    16    17 ar  
    34    16    48 1   
    35    17    18 ar  
    36    17    49 1   
    37    18    19 ar  
    38    18    50 1   
    39    19    20 ar  
    40    19    51 1   
    41    20    21 1   
    42    21    22 1   
    43    21    52 1   
    44    22    23 1   
    45    22    53 1   
    46    22    54 1   
    47    23    24 1   
    48    23    27 1   
    49    24    25 2   
    50    24    26 1   
    51    26    29 ar  
    52    26    33 ar  
    53    27    28 2   
    54    27    29 1   
    55    29    30 ar  
    56    30    31 ar  
    57    30    55 1   
    58    31    32 ar  
    59    31    56 1   
    60    32    33 ar  
    61    32    57 1   
    62    33    58 1   
@<TRIPOS>SUBSTRUCTURE
     1 12O         1 TEMP              0 ****  ****    0 ROOT
