@<TRIPOS>MOLECULE
molecule
   87    86     1     0     0
SMALL
bcc


@<TRIPOS>ATOM
      1 O37          0.0000     0.0000     0.0000 oh         1 12P      -0.598800
      2 C36          1.4280     0.0000     0.0000 c3         1 12P       0.142400
      3 C35          1.9380     0.0000     1.4420 c3         1 12P       0.128400
      4 O34          1.4630    -1.1660     2.1150 os         1 12P      -0.381600
      5 C33          1.9700    -1.1080     3.4500 c3         1 12P       0.126400
      6 C32          1.4940    -2.3350     4.2310 c3         1 12P       0.126400
      7 O31          1.9720    -3.5190     3.5910 os         1 12P      -0.384100
      8 C30          1.4970    -4.6250     4.3630 c3         1 12P       0.126400
      9 C29          1.9750    -5.9330     3.7290 c3         1 12P       0.126400
     10 O28          3.4030    -5.9530     3.6980 os         1 12P      -0.384600
     11 C27          3.7860    -7.1920     3.0980 c3         1 12P       0.126400
     12 C26          5.3130    -7.2770     3.0330 c3         1 12P       0.126400
     13 O25          5.8510    -7.2020     4.3550 os         1 12P      -0.384600
     14 C24          7.2710    -7.2870     4.2280 c3         1 12P       0.126400
     15 C23          7.9120    -7.2110     5.6160 c3         1 12P       0.126400
     16 O22          7.4400    -8.2950     6.4170 os         1 12P      -0.384600
     17 C21          8.0710    -8.1710     7.6930 c3         1 12P       0.126400
     18 C20          7.6070    -9.3070     8.6060 c3         1 12P       0.126400
     19 O19          7.9590   -10.5620     8.0200 os         1 12P      -0.384600
     20 C18          7.5010   -11.5770     8.9140 c3         1 12P       0.126400
     21 C17          7.8490   -12.9540     8.3450 c3         1 12P       0.126400
     22 O16          9.2650   -13.0600     8.1890 os         1 12P      -0.384600
     23 C15          9.5250   -14.3600     7.6560 c3         1 12P       0.126400
     24 C14         11.0320   -14.5400     7.4630 c3         1 12P       0.126400
     25 O13         11.6920   -14.4010     8.7220 os         1 12P      -0.384600
     26 C12         13.0890   -14.5790     8.4770 c3         1 12P       0.126400
     27 C11         13.8590   -14.4420     9.7920 c3         1 12P       0.126400
     28 O10         13.4070   -15.4350    10.7150 os         1 12P      -0.384600
     29 C9          14.1600   -15.2550    11.9160 c3         1 12P       0.126400
     30 C8          13.7220   -16.2920    12.9510 c3         1 12P       0.126400
     31 O7          13.9530   -17.6060    12.4370 os         1 12P      -0.384100
     32 C6          13.5270   -18.5250    13.4450 c3         1 12P       0.126400
     33 C5          13.7480   -19.9570    12.9550 c3         1 12P       0.126400
     34 O4          15.1360   -20.1580    12.6830 os         1 12P      -0.381600
     35 C3          15.2770   -21.5060    12.2320 c3         1 12P       0.128400
     36 C2          16.7480   -21.7890    11.9220 c3         1 12P       0.142400
     37 O1          17.5290   -21.5980    13.1020 oh         1 12P      -0.598800
     38 H37         -0.3140     0.0920    -0.8840 ho         1 12P       0.398000
     39 H361         1.7890     0.8850    -0.5110 h1         1 12P       0.027700
     40 H362         1.7890    -0.8840    -0.5110 h1         1 12P       0.027700
     41 H351         3.0210     0.0010     1.4420 h1         1 12P       0.031450
     42 H352         1.5760     0.8840     1.9530 h1         1 12P       0.031450
     43 H331         3.0530    -1.0950     3.4250 h1         1 12P       0.032700
     44 H332         1.6090    -0.2090     3.9350 h1         1 12P       0.032700
     45 H321         0.4110    -2.3500     4.2550 h1         1 12P       0.033200
     46 H322         1.8780    -2.2910     5.2430 h1         1 12P       0.033200
     47 H301         1.8820    -4.5530     5.3730 h1         1 12P       0.033200
     48 H302         0.4140    -4.6110     4.3880 h1         1 12P       0.033200
     49 H291         1.6150    -6.7710     4.3130 h1         1 12P       0.033200
     50 H292         1.5910    -6.0050     2.7190 h1         1 12P       0.033200
     51 H271         3.3790    -7.2490     2.0950 h1         1 12P       0.033200
     52 H272         3.4030    -8.0140     3.6900 h1         1 12P       0.033200
     53 H261         5.6960    -6.4550     2.4410 h1         1 12P       0.033200
     54 H262         5.6030    -8.2160     2.5780 h1         1 12P       0.033200
     55 H241         7.5360    -8.2260     3.7580 h1         1 12P       0.032700
     56 H242         7.6290    -6.4650     3.6200 h1         1 12P       0.032700
     57 H231         8.9890    -7.2750     5.5210 h1         1 12P       0.032700
     58 H232         7.6450    -6.2720     6.0860 h1         1 12P       0.032700
     59 H211         7.8030    -7.2190     8.1370 h1         1 12P       0.032950
     60 H212         9.1460    -8.2220     7.5710 h1         1 12P       0.032950
     61 H201         6.5320    -9.2560     8.7290 h1         1 12P       0.032950
     62 H202         8.0860    -9.2130     9.5730 h1         1 12P       0.032950
     63 H181         6.4270   -11.4960     9.0320 h1         1 12P       0.032950
     64 H182         7.9800   -11.4530     9.8780 h1         1 12P       0.032950
     65 H171         7.3700   -13.0780     7.3810 h1         1 12P       0.032950
     66 H172         7.5010   -13.7230     9.0230 h1         1 12P       0.032950
     67 H151         9.1560   -15.1120     8.3420 h1         1 12P       0.032700
     68 H152         9.0240   -14.4650     6.7010 h1         1 12P       0.032700
     69 H141        11.4010   -13.7880     6.7770 h1         1 12P       0.032700
     70 H142        11.2290   -15.5260     7.0590 h1         1 12P       0.032700
     71 H121        13.4320   -13.8260     7.7780 h1         1 12P       0.033200
     72 H122        13.2600   -15.5640     8.0600 h1         1 12P       0.033200
     73 H111        13.6880   -13.4570    10.2090 h1         1 12P       0.033200
     74 H112        14.9180   -14.5770     9.6070 h1         1 12P       0.033200
     75 H91         15.2150   -15.3800    11.7030 h1         1 12P       0.033200
     76 H92         13.9860   -14.2590    12.3060 h1         1 12P       0.033200
     77 H81         12.6670   -16.1680    13.1630 h1         1 12P       0.033200
     78 H82         14.2920   -16.1560    13.8630 h1         1 12P       0.033200
     79 H61         14.1010   -18.3600    14.3490 h1         1 12P       0.033200
     80 H62         12.4750   -18.3720    13.6520 h1         1 12P       0.033200
     81 H51         13.1760   -20.1210    12.0500 h1         1 12P       0.032700
     82 H52         13.4250   -20.6540    13.7180 h1         1 12P       0.032700
     83 H31         14.9340   -22.1830    13.0060 h1         1 12P       0.031450
     84 H32         14.6850   -21.6520    11.3370 h1         1 12P       0.031450
     85 H21         17.0910   -21.1120    11.1490 h1         1 12P       0.027700
     86 H22         16.8550   -22.8120    11.5800 h1         1 12P       0.027700
     87 HO1         18.4200   -21.8600    12.9360 ho         1 12P       0.398000
@<TRIPOS>BOND
     1     1     2 1
     2     1    38 1
     3     2     3 1
     4     2    39 1
     5     2    40 1
     6     3     4 1
     7     3    41 1
     8     3    42 1
     9     4     5 1
    10     5     6 1
    11     5    43 1
    12     5    44 1
    13     6     7 1
    14     6    45 1
    15     6    46 1
    16     7     8 1
    17     8     9 1
    18     8    47 1
    19     8    48 1
    20     9    10 1
    21     9    49 1
    22     9    50 1
    23    10    11 1
    24    11    12 1
    25    11    51 1
    26    11    52 1
    27    12    13 1
    28    12    53 1
    29    12    54 1
    30    13    14 1
    31    14    15 1
    32    14    55 1
    33    14    56 1
    34    15    16 1
    35    15    57 1
    36    15    58 1
    37    16    17 1
    38    17    18 1
    39    17    59 1
    40    17    60 1
    41    18    19 1
    42    18    61 1
    43    18    62 1
    44    19    20 1
    45    20    21 1
    46    20    63 1
    47    20    64 1
    48    21    22 1
    49    21    65 1
    50    21    66 1
    51    22    23 1
    52    23    24 1
    53    23    67 1
    54    23    68 1
    55    24    25 1
    56    24    69 1
    57    24    70 1
    58    25    26 1
    59    26    27 1
    60    26    71 1
    61    26    72 1
    62    27    28 1
    63    27    73 1
    64    27    74 1
    65    28    29 1
    66    29    30 1
    67    29    75 1
    68    29    76 1
    69    30    31 1
    70    30    77 1
    71    30    78 1
    72    31    32 1
    73    32    33 1
    74    32    79 1
    75    32    80 1
    76    33    34 1
    77    33    81 1
    78    33    82 1
    79    34    35 1
    80    35    36 1
    81    35    83 1
    82    35    84 1
    83    36    37 1
    84    36    85 1
    85    36    86 1
    86    37    87 1
@<TRIPOS>SUBSTRUCTURE
     1 12P         1 TEMP              0 ****  ****    0 ROOT
