@<TRIPOS>MOLECULE
12P
   87    86     1     0     0
SMALL
bcc


@<TRIPOS>ATOM
      1 O37        -1.1550    2.8870   -1.4570 oh        1 12P     -0.599800
      2 C36        -1.2030    2.9250   -0.0460 c3        1 12P      0.131400
      3 C35        -1.5280    1.5560    0.5430 c3        1 12P      0.087400
      4 O34        -0.4140    0.7200    0.2370 os        1 12P     -0.438600
      5 C33        -0.6030   -0.6210    0.6850 c3        1 12P      0.128400
      6 C32         0.7230   -1.3430    0.4670 c3        1 12P      0.127400
      7 O31         1.3040   -1.5230    1.7560 os        1 12P     -0.428600
      8 C30         2.6270   -2.0500    1.6840 c3        1 12P      0.127400
      9 C29         3.0460   -2.3680    3.1160 c3        1 12P      0.127400
     10 O28         3.0120   -3.7880    3.2410 os        1 12P     -0.429600
     11 C27         3.2410   -4.2170    4.5820 c3        1 12P      0.127400
     12 C26         3.3620   -5.7370    4.5350 c3        1 12P      0.127400
     13 O25         4.7440   -6.0390    4.7120 os        1 12P     -0.429600
     14 C24         5.0230   -7.4250    4.5190 c3        1 12P      0.127400
     15 C23         6.4850   -7.6300    4.9010 c3        1 12P      0.127400
     16 O22         6.4840   -8.3450    6.1350 os        1 12P     -0.429600
     17 C21         7.7930   -8.4690    6.6880 c3        1 12P      0.127400
     18 C20         7.6720   -9.4120    7.8800 c3        1 12P      0.127400
     19 O19         8.2560  -10.6490    7.4780 os        1 12P     -0.428600
     20 C18         8.0730  -11.6740    8.4530 c3        1 12P      0.127400
     21 C17         8.8820  -12.8760    7.9740 c3        1 12P      0.127400
     22 O16        10.0280  -12.9550    8.8190 os        1 12P     -0.429600
     23 C15        10.9630  -13.9330    8.3680 c3        1 12P      0.127400
     24 C14        12.0390  -14.0320    9.4450 c3        1 12P      0.127400
     25 O13        11.8460  -15.2860   10.0960 os        1 12P     -0.429600
     26 C12        12.6940  -15.4400   11.2320 c3        1 12P      0.127400
     27 C11        12.5230  -16.8790   11.7090 c3        1 12P      0.127400
     28 O10        13.7090  -17.5740   11.3320 os        1 12P     -0.429600
     29 C9         13.6130  -18.9770   11.5730 c3        1 12P      0.127400
     30 C8         14.9910  -19.5610   11.2820 c3        1 12P      0.127400
     31 O7         15.5710  -19.8800   12.5450 os        1 12P     -0.428600
     32 C6         16.9360  -20.2780   12.4270 c3        1 12P      0.127400
     33 C5         17.3690  -20.7520   13.8110 c3        1 12P      0.128400
     34 O4         17.4680  -22.1740   13.7400 os        1 12P     -0.438600
     35 C3         17.7020  -22.7650   15.0160 c3        1 12P      0.087400
     36 C2         17.8430  -24.2640   14.7680 c3        1 12P      0.131400
     37 O1         18.9980  -24.5610   14.0120 oh        1 12P     -0.599800
     38 H37        -0.4980    2.2210   -1.6970 ho        1 12P      0.412000
     39 H361       -0.2280    3.2980    0.3650 h1        1 12P      0.053700
     40 H362       -2.0260    3.6490    0.1990 h1        1 12P      0.053700
     41 H351       -1.6590    1.6250    1.6540 h1        1 12P      0.039200
     42 H352       -2.4570    1.1330    0.0780 h1        1 12P      0.039200
     43 H331       -1.4150   -1.1000    0.0770 h1        1 12P      0.045200
     44 H332       -0.8870   -0.6310    1.7710 h1        1 12P      0.045200
     45 H321        0.5480   -2.3470   -0.0030 h1        1 12P      0.043200
     46 H322        1.4050   -0.7350   -0.1850 h1        1 12P      0.043200
     47 H301        2.6430   -2.9750    1.0500 h1        1 12P      0.044200
     48 H302        3.3070   -1.2750    1.2410 h1        1 12P      0.044200
     49 H291        2.3410   -1.8960    3.8510 h1        1 12P      0.043700
     50 H292        4.0900   -2.0050    3.3070 h1        1 12P      0.043700
     51 H271        4.1820   -3.7550    4.9830 h1        1 12P      0.043700
     52 H272        2.3690   -3.9130    5.2190 h1        1 12P      0.043700
     53 H261        2.7740   -6.2010    5.3710 h1        1 12P      0.043200
     54 H262        2.9990   -6.1350    3.5510 h1        1 12P      0.043200
     55 H241        4.8590   -7.6860    3.4400 h1        1 12P      0.043700
     56 H242        4.3500   -8.0500    5.1640 h1        1 12P      0.043700
     57 H231        7.0060   -6.6440    5.0250 h1        1 12P      0.043700
     58 H232        7.0120   -8.2400    4.1210 h1        1 12P      0.043700
     59 H211        8.5010   -8.8830    5.9230 h1        1 12P      0.043700
     60 H212        8.1470   -7.4580    7.0220 h1        1 12P      0.043700
     61 H201        6.5970   -9.5630    8.1620 h1        1 12P      0.043200
     62 H202        8.2400   -9.0050    8.7590 h1        1 12P      0.043200
     63 H181        8.4340  -11.3250    9.4560 h1        1 12P      0.043200
     64 H182        6.9830  -11.9360    8.5130 h1        1 12P      0.043200
     65 H171        8.2820  -13.8180    8.0790 h1        1 12P      0.043700
     66 H172        9.1940  -12.7440    6.9050 h1        1 12P      0.043700
     67 H151       11.4110  -13.5940    7.3970 h1        1 12P      0.043700
     68 H152       10.4520  -14.9220    8.2230 h1        1 12P      0.043700
     69 H141       13.0600  -14.0110    8.9810 h1        1 12P      0.043700
     70 H142       11.9430  -13.1920   10.1830 h1        1 12P      0.043700
     71 H121       12.3710  -14.7230   12.0320 h1        1 12P      0.043200
     72 H122       13.7610  -15.2380   10.9510 h1        1 12P      0.043200
     73 H111       11.6250  -17.3530   11.2300 h1        1 12P      0.043700
     74 H112       12.4160  -16.9110   12.8250 h1        1 12P      0.043700
     75 H91        12.8470  -19.4180   10.8820 h1        1 12P      0.043700
     76 H92        13.3150  -19.1680   12.6380 h1        1 12P      0.043700
     77 H81        15.6310  -18.8190   10.7360 h1        1 12P      0.044200
     78 H82        14.8970  -20.5000   10.6730 h1        1 12P      0.044200
     79 H61        17.5500  -19.3960   12.1060 h1        1 12P      0.043200
     80 H62        17.0360  -21.1030   11.6730 h1        1 12P      0.043200
     81 H51        18.3730  -20.3270   14.0740 h1        1 12P      0.045200
     82 H52        16.6160  -20.4540   14.5880 h1        1 12P      0.045200
     83 H31        18.6430  -22.3460   15.4600 h1        1 12P      0.039200
     84 H32        16.8370  -22.5570   15.6970 h1        1 12P      0.039200
     85 H21        17.9870  -24.7990   15.7440 h1        1 12P      0.053700
     86 H22        16.9290  -24.6540   14.2460 h1        1 12P      0.053700
     87 HO1        18.9310  -24.0590   13.1890 ho        1 12P      0.412000
@<TRIPOS>BOND
     1    1    2 1   
     2    1   38 1   
     3    2    3 1   
     4    2   39 1   
     5    2   40 1   
     6    3    4 1   
     7    3   41 1   
     8    3   42 1   
     9    4    5 1   
    10    5    6 1   
    11    5   43 1   
    12    5   44 1   
    13    6    7 1   
    14    6   45 1   
    15    6   46 1   
    16    7    8 1   
    17    8    9 1   
    18    8   47 1   
    19    8   48 1   
    20    9   10 1   
    21    9   49 1   
    22    9   50 1   
    23   10   11 1   
    24   11   12 1   
    25   11   51 1   
    26   11   52 1   
    27   12   13 1   
    28   12   53 1   
    29   12   54 1   
    30   13   14 1   
    31   14   15 1   
    32   14   55 1   
    33   14   56 1   
    34   15   16 1   
    35   15   57 1   
    36   15   58 1   
    37   16   17 1   
    38   17   18 1   
    39   17   59 1   
    40   17   60 1   
    41   18   19 1   
    42   18   61 1   
    43   18   62 1   
    44   19   20 1   
    45   20   21 1   
    46   20   63 1   
    47   20   64 1   
    48   21   22 1   
    49   21   65 1   
    50   21   66 1   
    51   22   23 1   
    52   23   24 1   
    53   23   67 1   
    54   23   68 1   
    55   24   25 1   
    56   24   69 1   
    57   24   70 1   
    58   25   26 1   
    59   26   27 1   
    60   26   71 1   
    61   26   72 1   
    62   27   28 1   
    63   27   73 1   
    64   27   74 1   
    65   28   29 1   
    66   29   30 1   
    67   29   75 1   
    68   29   76 1   
    69   30   31 1   
    70   30   77 1   
    71   30   78 1   
    72   31   32 1   
    73   32   33 1   
    74   32   79 1   
    75   32   80 1   
    76   33   34 1   
    77   33   81 1   
    78   33   82 1   
    79   34   35 1   
    80   35   36 1   
    81   35   83 1   
    82   35   84 1   
    83   36   37 1   
    84   36   85 1   
    85   36   86 1   
    86   37   87 1   
@<TRIPOS>SUBSTRUCTURE
     1 12P         1 TEMP              0 ****  ****    0 ROOT
