@<TRIPOS>MOLECULE
12P
   87    86     1     0     0
SMALL
bcc


@<TRIPOS>ATOM
      1 O37         -0.5280     1.8520     1.9650 oh         1 12P      -0.601800
      2 C36          0.4560     0.9530     2.4280 c3         1 12P       0.129400
      3 C35          1.1130     1.4500     3.7120 c3         1 12P       0.105900
      4 O34          1.8390     2.6250     3.3520 os         1 12P      -0.429600
      5 C33          2.4080     3.3080     4.4580 c3         1 12P       0.109400
      6 C32          3.6840     2.6100     4.9220 c3         1 12P       0.114900
      7 O31          4.2400     3.4430     5.9360 os         1 12P      -0.423600
      8 C30          5.4750     2.9270     6.4280 c3         1 12P       0.125900
      9 C29          5.9410     3.9190     7.4910 c3         1 12P       0.114900
     10 O28          7.1370     3.3650     8.0350 os         1 12P      -0.434100
     11 C27          7.6940     4.2020     9.0480 c3         1 12P       0.128400
     12 C26          8.9610     3.4930     9.5170 c3         1 12P       0.127900
     13 O25          9.4610     4.2740    10.6000 os         1 12P      -0.430100
     14 C24         10.6570     3.7230    11.1500 c3         1 12P       0.126900
     15 C23         11.1680     4.7370    12.1690 c3         1 12P       0.121400
     16 O22         12.3360     5.3270    11.6000 os         1 12P      -0.419600
     17 C21         12.7360     6.5300    12.2360 c3         1 12P       0.128400
     18 C20         13.3850     6.2370    13.5860 c3         1 12P       0.096400
     19 O19         13.8730     7.4860    14.0690 os         1 12P      -0.421600
     20 C18         14.5530     7.3490    15.3130 c3         1 12P       0.096400
     21 C17         15.0590     8.7430    15.6740 c3         1 12P       0.128400
     22 O16         15.8820     8.6950    16.8280 os         1 12P      -0.419600
     23 C15         15.1580     8.5120    18.0440 c3         1 12P       0.121400
     24 C14         16.1170     8.8670    19.1760 c3         1 12P       0.126900
     25 O13         15.6830    10.1260    19.6910 os         1 12P      -0.430100
     26 C12         16.5830    10.6430    20.6680 c3         1 12P       0.127900
     27 C11         15.9770    11.9640    21.1340 c3         1 12P       0.128400
     28 O10         16.6210    12.2690    22.3690 os         1 12P      -0.434100
     29 C9          15.9960    13.3520    23.0570 c3         1 12P       0.114900
     30 C8          16.7210    13.5020    24.3920 c3         1 12P       0.125900
     31 O7          15.9440    12.9670    25.4550 os         1 12P      -0.423600
     32 C6          16.3230    11.6720    25.8990 c3         1 12P       0.114900
     33 C5          15.7270    10.5940    24.9990 c3         1 12P       0.109400
     34 O4          16.3050     9.3600    25.4200 os         1 12P      -0.429600
     35 C3          15.9540     8.2890    24.5470 c3         1 12P       0.105900
     36 C2          16.6640     7.0540    25.0950 c3         1 12P       0.129400
     37 O1          16.4600     6.0240    24.1400 oh         1 12P      -0.601800
     38 H37         -0.0930     2.7060     1.8410 ho         1 12P       0.409000
     39 H361        -0.0940    -0.0050     2.6300 h1         1 12P       0.044700
     40 H362         1.2350     0.7900     1.6370 h1         1 12P       0.044700
     41 H351         1.8160     0.6780     4.1190 h1         1 12P       0.039950
     42 H352         0.3390     1.7020     4.4830 h1         1 12P       0.039950
     43 H331         1.6770     3.3930     5.3040 h1         1 12P       0.054450
     44 H332         2.6460     4.3310     4.0590 h1         1 12P       0.054450
     45 H321         4.4060     2.5010     4.0700 h1         1 12P       0.047450
     46 H322         3.4590     1.5960     5.3450 h1         1 12P       0.047450
     47 H301         5.3180     1.9110     6.8750 h1         1 12P       0.052200
     48 H302         6.2230     2.8560     5.5960 h1         1 12P       0.052200
     49 H291         5.1670     4.0310     8.2950 h1         1 12P       0.042700
     50 H292         6.1520     4.9210     7.0350 h1         1 12P       0.042700
     51 H271         7.9360     5.2110     8.6240 h1         1 12P       0.042950
     52 H272         6.9670     4.3180     9.8940 h1         1 12P       0.042950
     53 H261         8.7280     2.4540     9.8670 h1         1 12P       0.041200
     54 H262         9.7190     3.4460     8.6920 h1         1 12P       0.041200
     55 H241        10.4150     2.7490    11.6510 h1         1 12P       0.046200
     56 H242        11.4160     3.5540    10.3400 h1         1 12P       0.046200
     57 H231        11.4510     4.2200    13.1230 h1         1 12P       0.044950
     58 H232        10.3890     5.5170    12.3780 h1         1 12P       0.044950
     59 H211        11.8710     7.2320    12.3610 h1         1 12P       0.063200
     60 H212        13.4870     6.9770    11.5300 h1         1 12P       0.063200
     61 H201        14.2290     5.5080    13.4700 h1         1 12P       0.033950
     62 H202        12.6360     5.8180    14.3090 h1         1 12P       0.033950
     63 H181        15.4090     6.6310    15.2110 h1         1 12P       0.033950
     64 H182        13.8430     6.9640    16.0930 h1         1 12P       0.033950
     65 H171        15.7370     9.1340    14.8680 h1         1 12P       0.063200
     66 H172        14.1980     9.4470    15.8180 h1         1 12P       0.063200
     67 H151        14.2510     9.1720    18.0700 h1         1 12P       0.044950
     68 H152        14.8470     7.4370    18.1230 h1         1 12P       0.044950
     69 H141        16.0650     8.0980    19.9910 h1         1 12P       0.046200
     70 H142        17.1710     8.9450    18.7960 h1         1 12P       0.046200
     71 H121        16.6710     9.9260    21.5280 h1         1 12P       0.041200
     72 H122        17.5950    10.8030    20.2130 h1         1 12P       0.041200
     73 H111        14.8700    11.8580    21.2800 h1         1 12P       0.042950
     74 H112        16.1770    12.7830    20.3950 h1         1 12P       0.042950
     75 H91         14.9080    13.1300    23.2180 h1         1 12P       0.042700
     76 H92         16.1020    14.2860    22.4450 h1         1 12P       0.042700
     77 H81         17.7390    13.0360    24.3400 h1         1 12P       0.052200
     78 H82         16.8110    14.5950    24.6410 h1         1 12P       0.052200
     79 H61         17.4380    11.5660    25.9470 h1         1 12P       0.047450
     80 H62         15.8920    11.6040    26.9340 h1         1 12P       0.047450
     81 H51         15.9790    10.7960    23.9230 h1         1 12P       0.054450
     82 H52         14.6130    10.5450    25.1160 h1         1 12P       0.054450
     83 H31         16.2990     8.5110    23.5030 h1         1 12P       0.039950
     84 H32         14.8430     8.1420    24.5460 h1         1 12P       0.039950
     85 H21         16.2290     6.7600    26.0860 h1         1 12P       0.044700
     86 H22         17.7600     7.2580    25.2210 h1         1 12P       0.044700
     87 HO1         16.8960     5.2390    24.4910 ho         1 12P       0.409000
@<TRIPOS>BOND
     1     1     2 1   
     2     1    38 1   
     3     2     3 1   
     4     2    39 1   
     5     2    40 1   
     6     3     4 1   
     7     3    41 1   
     8     3    42 1   
     9     4     5 1   
    10     5     6 1   
    11     5    43 1   
    12     5    44 1   
    13     6     7 1   
    14     6    45 1   
    15     6    46 1   
    16     7     8 1   
    17     8     9 1   
    18     8    47 1   
    19     8    48 1   
    20     9    10 1   
    21     9    49 1   
    22     9    50 1   
    23    10    11 1   
    24    11    12 1   
    25    11    51 1   
    26    11    52 1   
    27    12    13 1   
    28    12    53 1   
    29    12    54 1   
    30    13    14 1   
    31    14    15 1   
    32    14    55 1   
    33    14    56 1   
    34    15    16 1   
    35    15    57 1   
    36    15    58 1   
    37    16    17 1   
    38    17    18 1   
    39    17    59 1   
    40    17    60 1   
    41    18    19 1   
    42    18    61 1   
    43    18    62 1   
    44    19    20 1   
    45    20    21 1   
    46    20    63 1   
    47    20    64 1   
    48    21    22 1   
    49    21    65 1   
    50    21    66 1   
    51    22    23 1   
    52    23    24 1   
    53    23    67 1   
    54    23    68 1   
    55    24    25 1   
    56    24    69 1   
    57    24    70 1   
    58    25    26 1   
    59    26    27 1   
    60    26    71 1   
    61    26    72 1   
    62    27    28 1   
    63    27    73 1   
    64    27    74 1   
    65    28    29 1   
    66    29    30 1   
    67    29    75 1   
    68    29    76 1   
    69    30    31 1   
    70    30    77 1   
    71    30    78 1   
    72    31    32 1   
    73    32    33 1   
    74    32    79 1   
    75    32    80 1   
    76    33    34 1   
    77    33    81 1   
    78    33    82 1   
    79    34    35 1   
    80    35    36 1   
    81    35    83 1   
    82    35    84 1   
    83    36    37 1   
    84    36    85 1   
    85    36    86 1   
    86    37    87 1   
@<TRIPOS>SUBSTRUCTURE
     1 12P         1 TEMP              0 ****  ****    0 ROOT
