@<TRIPOS>MOLECULE
12Q
   21    22     1     0     0
SMALL
bcc


@<TRIPOS>ATOM
      1 CAH        -0.0060   -0.0000   -0.0060 c3        1 12Q      0.063300
      2 NAC         1.4350   -0.0000   -0.0220 n         1 12Q     -0.348000
      3 CAA         2.1330   -0.0050    1.1890 ca        1 12Q      0.100600
      4 CAD         1.4560   -0.0110    2.4380 ca        1 12Q     -0.182000
      5 CAI         2.1700   -0.0160    3.6230 ca        1 12Q     -0.080000
      6 CAK         3.5720   -0.0150    3.6210 ca        1 12Q     -0.168000
      7 CAF         4.2530   -0.0100    2.4160 ca        1 12Q     -0.072000
      8 CAB         3.5580   -0.0050    1.1950 ca        1 12Q     -0.137800
      9 CAE         4.2630    0.0010   -0.0610 cc        1 12Q     -0.033200
     10 CAJ         3.5860    0.0060   -1.2260 cd        1 12Q     -0.232200
     11 CAG         2.1170    0.0050   -1.2570 c         1 12Q      0.693700
     12 OAL         1.4650    0.0100   -2.3210 o         1 12Q     -0.634500
     13 HAH1       -0.3970    0.0050   -1.0600 h1        1 12Q      0.057367
     14 HAH2       -0.3860    0.9120    0.5270 h1        1 12Q      0.057367
     15 HAH3       -0.3850   -0.9180    0.5190 h1        1 12Q      0.057367
     16 HAD         0.3560   -0.0110    2.4770 ha        1 12Q      0.141000
     17 HAI         1.6300   -0.0200    4.5820 ha        1 12Q      0.136000
     18 HAK         4.1210   -0.0190    4.5730 ha        1 12Q      0.138000
     19 HAF         5.3540   -0.0100    2.4000 ha        1 12Q      0.136000
     20 HAE         5.3650    0.0010   -0.0330 ha        1 12Q      0.141000
     21 HAJ         4.0730    0.0100   -2.2120 ha        1 12Q      0.165000
@<TRIPOS>BOND
     1    1    2 1
     2    1   13 1
     3    1   14 1
     4    1   15 1
     5    2    3 1
     6    2   11 1
     7    3    4 ar
     8    3    8 ar
     9    4    5 ar
    10    4   16 1
    11    5    6 ar
    12    5   17 1
    13    6    7 ar
    14    6   18 1
    15    7    8 ar
    16    7   19 1
    17    8    9 1
    18    9   10 2
    19    9   20 1
    20   10   11 1
    21   10   21 1
    22   11   12 2
@<TRIPOS>SUBSTRUCTURE
     1 12Q         1 TEMP              0 ****  ****    0 ROOT
