@<TRIPOS>MOLECULE
12R
   27    29     1     0     0
SMALL
bcc


@<TRIPOS>ATOM
      1 C4           0.2570    -0.0110    -0.1470 ca         1 12R       0.703200
      2 C14          0.3280     1.0990    -4.7130 ca         1 12R      -0.157500
      3 C5           1.6140    -0.3310     0.1040 ca         1 12R      -0.435500
      4 C6           2.0860    -0.1770     1.4790 ca         1 12R       0.450800
      5 C10          2.7780    -0.8070    -0.6160 cc         1 12R       0.402800
      6 C13          0.1190     1.1480    -3.3170 ca         1 12R       0.065600
      7 N1           1.2980     0.2600     2.5080 nb         1 12R      -0.711000
      8 N3          -0.5270     0.4500     0.8730 nb         1 12R      -0.776000
      9 C2           0.0360     0.5390     2.1130 ca         1 12R       0.679900
     10 N7           3.4330    -0.5640     1.4590 na         1 12R      -0.115800
     11 N9           3.8240    -0.9250     0.2270 nd         1 12R      -0.519100
     12 N11         -0.3510    -0.2820    -1.4200 nu         1 12R      -0.566700
     13 N12          0.4230    -0.0100    -2.5240 nu         1 12R      -0.460400
     14 C15          0.1530     2.2430    -5.4850 ca         1 12R      -0.104000
     15 C16         -0.2440     3.4420    -4.8960 ca         1 12R      -0.145000
     16 C17         -0.4620     3.4950    -3.5210 ca         1 12R      -0.104000
     17 C18         -0.2840     2.3630    -2.7290 ca         1 12R      -0.157500
     18 H2           2.8510    -1.0400    -1.6790 h4         1 12R       0.066800
     19 H3          -0.6470     0.9060     2.9090 h5         1 12R       0.056100
     20 H4           4.0690    -0.5670     2.2220 hn         1 12R       0.338700
     21 H5          -1.2750     0.1380    -1.4730 hn         1 12R       0.399800
     22 H6           0.4000    -0.8440    -3.1020 hn         1 12R       0.402800
     23 H7           0.3270     2.1950    -6.5710 ha         1 12R       0.136500
     24 H8          -0.3850     4.3410    -5.5130 ha         1 12R       0.136000
     25 H9          -0.7740     4.4390    -3.0490 ha         1 12R       0.136500
     26 H10         -0.4480     2.4400    -1.6430 ha         1 12R       0.139000
     27 H1           0.6400     0.1620    -5.1990 ha         1 12R       0.139000
@<TRIPOS>BOND
     1     1     3 ar  
     2     1     8 ar  
     3     1    12 1   
     4     2     6 ar  
     5     2    14 ar  
     6     2    27 1   
     7     3     4 ar  
     8     3     5 1   
     9     4     7 ar  
    10     4    10 1   
    11     5    11 2   
    12     5    18 1   
    13     6    13 1   
    14     6    17 ar  
    15     7     9 ar  
    16     8     9 ar  
    17     9    19 1   
    18    10    11 1   
    19    10    20 1   
    20    12    13 1   
    21    12    21 1   
    22    13    22 1   
    23    14    15 ar  
    24    14    23 1   
    25    15    16 ar  
    26    15    24 1   
    27    16    17 ar  
    28    16    25 1   
    29    17    26 1   
@<TRIPOS>SUBSTRUCTURE
     1 12R         1 TEMP              0 ****  ****    0 ROOT
