@<TRIPOS>MOLECULE
12R
   27    29     1     0     0
SMALL
bcc


@<TRIPOS>ATOM
      1 C4           0.0000     0.0000     0.0000 ca         1 12R       0.616200
      2 C14         -4.2120     0.0220    -2.3490 ca         1 12R      -0.186500
      3 C5           1.4090     0.0000     0.0000 ca         1 12R      -0.574500
      4 C6           2.0760     0.0000     1.2400 ca         1 12R       0.333800
      5 C10          2.4020    -0.0000    -1.0030 cc         1 12R       0.472800
      6 C13         -2.8230     0.0160    -2.3660 ca         1 12R       0.060600
      7 N1           1.3520     0.0000     2.3590 nb         1 12R      -0.704000
      8 N3          -0.6310    -0.0000     1.1690 nb         1 12R      -0.773000
      9 C2           0.0390     0.0000     2.3080 ca         1 12R       0.725900
     10 N7           3.4110     0.0010     0.9640 na         1 12R       0.348200
     11 N9           3.5690     0.0000    -0.4270 nd         1 12R      -0.654100
     12 N11         -0.7070     0.0050    -1.1860 nu         1 12R      -0.307700
     13 N12         -2.1070     0.0110    -1.1660 nu         1 12R      -0.273400
     14 C15         -4.9160     0.0270    -3.5370 ca         1 12R      -0.043000
     15 C16         -4.2400     0.0260    -4.7430 ca         1 12R      -0.158000
     16 C17         -2.8570     0.0200    -4.7640 ca         1 12R      -0.043000
     17 C18         -2.1470     0.0150    -3.5800 ca         1 12R      -0.186500
     18 H2           2.2230    -0.0000    -2.0710 h4         1 12R       0.006800
     19 H3          -0.5180     0.0000     3.2380 h5         1 12R      -0.004900
     20 H4           4.1500     0.0010     1.6390 hn         1 12R       0.159700
     21 H5          -0.2190    -0.0370    -2.0590 hn         1 12R       0.322800
     22 H6          -2.5950    -0.0120    -0.2920 hn         1 12R       0.341800
     23 H7          -5.9990     0.0310    -3.5240 ha         1 12R       0.100000
     24 H8          -4.7950     0.0300    -5.6730 ha         1 12R       0.106000
     25 H9          -2.3300     0.0190    -5.7110 ha         1 12R       0.100000
     26 H10         -1.0640     0.0100    -3.5980 ha         1 12R       0.107000
     27 H1          -4.7420     0.0230    -1.4040 ha         1 12R       0.107000
@<TRIPOS>BOND
     1     1     3 ar  
     2     1     8 ar  
     3     1    12 1   
     4     2     6 ar  
     5     2    14 ar  
     6     2    27 1   
     7     3     4 ar  
     8     3     5 1   
     9     4     7 ar  
    10     4    10 1   
    11     5    11 2   
    12     5    18 1   
    13     6    13 1   
    14     6    17 ar  
    15     7     9 ar  
    16     8     9 ar  
    17     9    19 1   
    18    10    11 1   
    19    10    20 1   
    20    12    13 1   
    21    12    21 1   
    22    13    22 1   
    23    14    15 ar  
    24    14    23 1   
    25    15    16 ar  
    26    15    24 1   
    27    16    17 ar  
    28    16    25 1   
    29    17    26 1   
@<TRIPOS>SUBSTRUCTURE
     1 12R         1 TEMP              0 ****  ****    0 ROOT
