@<TRIPOS>MOLECULE
12S
   64    66     1     0     0
SMALL
bcc


@<TRIPOS>ATOM
      1 N26         -0.0170     0.0090     0.1820 nv         1 12S      -0.938000
      2 C26          1.3510    -0.2930     0.1740 ca         1 12S       0.597700
      3 C25          2.0750    -0.2680     1.4070 ca         1 12S      -0.288300
      4 C24          3.4520    -0.4680     1.3870 ca         1 12S       0.005200
      5 C27          4.2420    -0.4350     2.6390 c3         1 12S      -0.069300
      6 C23          4.0870    -0.6930     0.1570 ca         1 12S      -0.277300
      7 N21          1.9700    -0.5340    -1.0240 nb         1 12S      -0.750500
      8 C22          3.3100    -0.7160    -1.0140 ca         1 12S       0.446600
      9 C28          4.0000    -0.9820    -2.3250 c3         1 12S      -0.128200
     10 C29          3.7730     0.1460    -3.3170 c3         1 12S      -0.040100
     11 C5           4.4840    -0.1060    -4.6020 ca         1 12S      -0.052300
     12 C4           4.0540    -1.1300    -5.4530 ca         1 12S      -0.125000
     13 C6           5.5690     0.6920    -4.9800 ca         1 12S      -0.151000
     14 C1           6.2330     0.4550    -6.1880 ca         1 12S      -0.123300
     15 C7           7.3570     1.3320    -6.6160 c3         1 12S      -0.054100
     16 C8           6.9190     2.7560    -6.9140 c3         1 12S      -0.105400
     17 C9           5.5330     2.8690    -7.5360 c3         1 12S       0.101800
     18 N10          5.3540     2.0240    -8.7460 nz         1 12S      -0.831600
     19 C2           5.8290    -0.6070    -7.0060 ca         1 12S      -0.151000
     20 C3           4.7190    -1.3820    -6.6580 ca         1 12S      -0.052300
     21 C19          4.2470    -2.4660    -7.5640 c3         1 12S      -0.040100
     22 C18          2.9190    -2.1380    -8.2200 c3         1 12S      -0.128200
     23 C12          2.9680    -1.3470    -9.5000 ca         1 12S       0.446600
     24 C13          1.8100    -1.4100   -10.3120 ca         1 12S      -0.277300
     25 N11          4.0570    -0.6240    -9.8350 nb         1 12S      -0.750500
     26 C16          4.0390     0.0330   -11.0390 ca         1 12S       0.597700
     27 N16          5.1910     0.8030   -11.3900 nv         1 12S      -0.938000
     28 C15          2.9130     0.0170   -11.8990 ca         1 12S      -0.288300
     29 C14          1.7790    -0.7100   -11.5180 ca         1 12S       0.005200
     30 C17          0.5810    -0.7350   -12.3870 c3         1 12S      -0.069300
     31 H1          -0.4790    -0.2280     1.0310 hn         1 12S       0.398800
     32 H2          -0.5270    -0.2270    -0.6400 hn         1 12S       0.398800
     33 H3           1.5520    -0.0850     2.3560 ha         1 12S       0.151500
     34 H4           3.5890    -0.5820     3.5350 hc         1 12S       0.059033
     35 H5           5.0230    -1.2360     2.6340 hc         1 12S       0.059033
     36 H6           4.7550     0.5550     2.7370 hc         1 12S       0.059033
     37 H7           5.1710    -0.8550     0.1150 ha         1 12S       0.151500
     38 H8           5.1000    -1.1080    -2.1420 hc         1 12S       0.064450
     39 H9           3.6170    -1.9460    -2.7570 hc         1 12S       0.064450
     40 H10          2.6730     0.2500    -3.5230 hc         1 12S       0.067700
     41 H11          4.1200     1.1120    -2.8640 hc         1 12S       0.067700
     42 H12          3.1880    -1.7480    -5.1640 ha         1 12S       0.151000
     43 H13          5.9110     1.5040    -4.3190 ha         1 12S       0.139500
     44 H14          7.8590     0.8960    -7.5220 hc         1 12S       0.070200
     45 H15          8.1360     1.3630    -5.8040 hc         1 12S       0.070200
     46 H16          7.6820     3.2470    -7.5740 hc         1 12S       0.081200
     47 H17          6.8780     3.3440    -5.9560 hc         1 12S       0.081200
     48 H18          4.7580     2.5430    -6.7800 hx         1 12S       0.105700
     49 H19          5.3330     3.9400    -7.8270 hx         1 12S       0.105700
     50 H20          6.0500     2.2640    -9.4570 hn         1 12S       0.466133
     51 H21          4.4200     2.1540    -9.1440 hn         1 12S       0.466133
     52 H23          6.3950    -0.8560    -7.9180 ha         1 12S       0.139500
     53 H24          4.1130    -3.4030    -6.9550 hc         1 12S       0.067700
     54 H25          5.0210    -2.6920    -8.3430 hc         1 12S       0.067700
     55 H26          2.3980    -3.1080    -8.4550 hc         1 12S       0.064450
     56 H27          2.2680    -1.5760    -7.4960 hc         1 12S       0.064450
     57 H28          0.9490    -2.0130    -9.9910 ha         1 12S       0.151500
     58 H29          5.1110     1.1450   -12.3290 hn         1 12S       0.398800
     59 H30          6.0370     0.2730   -11.2910 hn         1 12S       0.398800
     60 H31          2.9220     0.5550   -12.8580 ha         1 12S       0.151500
     61 H32         -0.0760    -1.6070   -12.1450 hc         1 12S       0.059033
     62 H33         -0.0120     0.2030   -12.2420 hc         1 12S       0.059033
     63 H34          0.8740    -0.8000   -13.4650 hc         1 12S       0.059033
     64 H103         5.4660     1.0250    -8.5010 hn         1 12S       0.466133
@<TRIPOS>BOND
     1     1     2 1   
     2     1    31 1   
     3     1    32 1   
     4     2     3 ar  
     5     2     7 ar  
     6     3     4 ar  
     7     3    33 1   
     8     4     5 1   
     9     4     6 ar  
    10     5    34 1   
    11     5    35 1   
    12     5    36 1   
    13     6     8 ar  
    14     6    37 1   
    15     7     8 ar  
    16     8     9 1   
    17     9    10 1   
    18     9    38 1   
    19     9    39 1   
    20    10    11 1   
    21    10    40 1   
    22    10    41 1   
    23    11    12 ar  
    24    11    13 ar  
    25    12    20 ar  
    26    12    42 1   
    27    13    14 ar  
    28    13    43 1   
    29    14    15 1   
    30    14    19 ar  
    31    15    16 1   
    32    15    44 1   
    33    15    45 1   
    34    16    17 1   
    35    16    46 1   
    36    16    47 1   
    37    17    18 1   
    38    17    48 1   
    39    17    49 1   
    40    18    50 1   
    41    18    51 1   
    42    18    64 1   
    43    19    20 ar  
    44    19    52 1   
    45    20    21 1   
    46    21    22 1   
    47    21    53 1   
    48    21    54 1   
    49    22    23 1   
    50    22    55 1   
    51    22    56 1   
    52    23    24 ar  
    53    23    25 ar  
    54    24    29 ar  
    55    24    57 1   
    56    25    26 ar  
    57    26    27 1   
    58    26    28 ar  
    59    27    58 1   
    60    27    59 1   
    61    28    29 ar  
    62    28    60 1   
    63    29    30 1   
    64    30    61 1   
    65    30    62 1   
    66    30    63 1   
@<TRIPOS>SUBSTRUCTURE
     1 12S         1 TEMP              0 ****  ****    0 ROOT
