@<TRIPOS>MOLECULE
12S
   64    66     1     0     0
SMALL
bcc


@<TRIPOS>ATOM
      1 N26          0.0000     0.0000     0.0000 nv         1 12S      -0.534000
      2 C26          1.3900     0.0000     0.0000 ca         1 12S       0.516700
      3 C25          2.0790     0.0000     1.2090 ca         1 12S      -0.298800
      4 C24          3.4620     0.0000     1.1940 ca         1 12S      -0.001300
      5 C27          4.2450    -0.0000     2.4820 c3         1 12S       0.058700
      6 C23          4.1120     0.0010    -0.0320 ca         1 12S      -0.289300
      7 N21          2.0460    -0.0050    -1.1500 nb         1 12S      -0.659000
      8 C22          3.3660     0.0020    -1.1930 ca         1 12S       0.418100
      9 C28          4.0650    -0.0040    -2.5280 c3         1 12S      -0.063200
     10 C29          3.5750    -1.1930    -3.3560 c3         1 12S       0.026400
     11 C5           4.2760    -1.2000    -4.6910 ca         1 12S      -0.070300
     12 C4           5.4680    -1.8820    -4.8420 ca         1 12S      -0.076000
     13 C6           3.7220    -0.5270    -5.7640 ca         1 12S      -0.099500
     14 C1           4.3640    -0.5330    -6.9880 ca         1 12S      -0.130300
     15 C7           3.7600     0.1990    -8.1590 c3         1 12S       0.055900
     16 C8           4.2790     1.6390    -8.1820 c3         1 12S      -0.037400
     17 C9           3.6650     2.3830    -9.3700 c3         1 12S      -0.056200
     18 N10          4.1630     3.7640    -9.3930 nz         1 12S       0.086400
     19 C2           5.5600    -1.2100    -7.1390 ca         1 12S      -0.099500
     20 C3           6.1100    -1.8860    -6.0660 ca         1 12S      -0.070300
     21 C19          7.4140    -2.6250    -6.2300 c3         1 12S       0.026400
     22 C18          8.5770    -1.6840    -5.9060 c3         1 12S      -0.063200
     23 C12          9.8800    -2.4220    -6.0690 ca         1 12S       0.418100
     24 C13         10.8550    -1.9070    -6.9010 ca         1 12S      -0.289300
     25 N11         10.0770    -3.5500    -5.4130 nb         1 12S      -0.659000
     26 C16         11.2070    -4.2310    -5.5260 ca         1 12S       0.516700
     27 N16         11.3730    -5.4140    -4.8160 nv         1 12S      -0.534000
     28 C15         12.2300    -3.7730    -6.3500 ca         1 12S      -0.298800
     29 C14         12.0570    -2.5880    -7.0430 ca         1 12S      -0.001300
     30 C17         13.1400    -2.0590    -7.9460 c3         1 12S       0.058700
     31 H1          -0.5000    -0.3320    -0.8010 hn         1 12S       0.272050
     32 H2          -0.5000     0.3530     0.7920 hn         1 12S       0.272050
     33 H3           1.5470     0.1820     2.1350 ha         1 12S       0.123500
     34 H4           3.6000    -0.3060     3.2970 hc         1 12S       0.012200
     35 H5           4.6230     0.9960     2.6750 hc         1 12S       0.012200
     36 H6           5.0750    -0.6910     2.4000 hc         1 12S       0.012200
     37 H7           5.1940     0.0040    -0.0770 ha         1 12S       0.116500
     38 H8           5.1340    -0.0870    -2.3750 hc         1 12S       0.017700
     39 H9           3.8460     0.9170    -3.0540 hc         1 12S       0.017700
     40 H10          3.7940    -2.1140    -2.8290 hc         1 12S       0.034200
     41 H11          2.5060    -1.1100    -3.5100 hc         1 12S       0.034200
     42 H12          5.9000    -2.4120    -4.0020 ha         1 12S       0.123000
     43 H13          2.7800    -0.0060    -5.6490 ha         1 12S       0.106500
     44 H14          4.0380    -0.3000    -9.0790 hc         1 12S       0.027200
     45 H15          2.6810     0.2060    -8.0630 hc         1 12S       0.027200
     46 H16          5.3580     1.6320    -8.2780 hc         1 12S       0.037200
     47 H17          4.0010     2.1380    -7.2610 hc         1 12S       0.037200
     48 H18          2.5860     2.3890    -9.2740 hx         1 12S       0.085200
     49 H19          3.9420     1.8840   -10.2910 hx         1 12S       0.085200
     50 H20          5.1590     3.7580    -9.4850 hn         1 12S       0.222467
     51 H21          3.9090     4.2240    -8.5400 hn         1 12S       0.222467
     52 H23          6.0630    -1.2150    -8.0980 ha         1 12S       0.106500
     53 H24          7.5060    -2.9730    -7.2520 hc         1 12S       0.034200
     54 H25          7.4370    -3.4730    -5.5560 hc         1 12S       0.034200
     55 H26          8.4850    -1.3350    -4.8840 hc         1 12S       0.017700
     56 H27          8.5550    -0.8360    -6.5800 hc         1 12S       0.017700
     57 H28         10.6880    -0.9770    -7.4300 ha         1 12S       0.116500
     58 H29         10.6600    -5.7240    -4.1860 hn         1 12S       0.272050
     59 H30         12.2140    -5.9470    -4.9200 hn         1 12S       0.272050
     60 H31         13.1540    -4.3310    -6.4390 ha         1 12S       0.123500
     61 H32         13.4000    -1.0510    -7.6460 hc         1 12S       0.012200
     62 H33         14.0140    -2.6940    -7.8730 hc         1 12S       0.012200
     63 H34         12.7850    -2.0500    -8.9700 hc         1 12S       0.012200
     64 H103         3.7520     4.2550   -10.1620 hn         1 12S       0.222467
@<TRIPOS>BOND
     1     1     2 1   
     2     1    31 1   
     3     1    32 1   
     4     2     3 ar  
     5     2     7 ar  
     6     3     4 ar  
     7     3    33 1   
     8     4     5 1   
     9     4     6 ar  
    10     5    34 1   
    11     5    35 1   
    12     5    36 1   
    13     6     8 ar  
    14     6    37 1   
    15     7     8 ar  
    16     8     9 1   
    17     9    10 1   
    18     9    38 1   
    19     9    39 1   
    20    10    11 1   
    21    10    40 1   
    22    10    41 1   
    23    11    12 ar  
    24    11    13 ar  
    25    12    20 ar  
    26    12    42 1   
    27    13    14 ar  
    28    13    43 1   
    29    14    15 1   
    30    14    19 ar  
    31    15    16 1   
    32    15    44 1   
    33    15    45 1   
    34    16    17 1   
    35    16    46 1   
    36    16    47 1   
    37    17    18 1   
    38    17    48 1   
    39    17    49 1   
    40    18    50 1   
    41    18    51 1   
    42    18    64 1   
    43    19    20 ar  
    44    19    52 1   
    45    20    21 1   
    46    21    22 1   
    47    21    53 1   
    48    21    54 1   
    49    22    23 1   
    50    22    55 1   
    51    22    56 1   
    52    23    24 ar  
    53    23    25 ar  
    54    24    29 ar  
    55    24    57 1   
    56    25    26 ar  
    57    26    27 1   
    58    26    28 ar  
    59    27    58 1   
    60    27    59 1   
    61    28    29 ar  
    62    28    60 1   
    63    29    30 1   
    64    30    61 1   
    65    30    62 1   
    66    30    63 1   
@<TRIPOS>SUBSTRUCTURE
     1 12S         1 TEMP              0 ****  ****    0 ROOT
