@<TRIPOS>MOLECULE
molecule
   64    66     1     0     0
SMALL
bcc


@<TRIPOS>ATOM
      1 N26          0.0000     0.0000     0.0000 nv         1 12S      -1.015000
      2 C26          1.3900     0.0000     0.0000 ca         1 12S       0.712200
      3 C25          2.0790     0.0000     1.2090 ca         1 12S      -0.315800
      4 C24          3.4620     0.0000     1.1940 ca         1 12S      -0.002300
      5 C27          4.2450    -0.0000     2.4820 c3         1 12S      -0.052300
      6 C23          4.1120     0.0010    -0.0320 ca         1 12S      -0.309800
      7 N21          2.0460    -0.0050    -1.1500 nb         1 12S      -0.774500
      8 C22          3.3660     0.0020    -1.1930 ca         1 12S       0.467100
      9 C28          4.0650    -0.0040    -2.5280 c3         1 12S      -0.117200
     10 C29          3.5750    -1.1930    -3.3560 c3         1 12S      -0.034100
     11 C5           4.2760    -1.2000    -4.6910 ca         1 12S      -0.068300
     12 C4           5.4680    -1.8820    -4.8420 ca         1 12S      -0.105000
     13 C6           3.7220    -0.5270    -5.7640 ca         1 12S      -0.125500
     14 C1           4.3640    -0.5330    -6.9880 ca         1 12S      -0.115300
     15 C7           3.7600     0.1990    -8.1590 c3         1 12S      -0.017100
     16 C8           4.2790     1.6390    -8.1820 c3         1 12S      -0.108400
     17 C9           3.6650     2.3830    -9.3700 c3         1 12S       0.086800
     18 N10          4.1630     3.7640    -9.3930 nz         1 12S      -0.810600
     19 C2           5.5600    -1.2100    -7.1390 ca         1 12S      -0.125500
     20 C3           6.1100    -1.8860    -6.0660 ca         1 12S      -0.068300
     21 C19          7.4140    -2.6250    -6.2300 c3         1 12S      -0.034100
     22 C18          8.5770    -1.6840    -5.9060 c3         1 12S      -0.117200
     23 C12          9.8800    -2.4220    -6.0690 ca         1 12S       0.467100
     24 C13         10.8550    -1.9070    -6.9010 ca         1 12S      -0.309800
     25 N11         10.0770    -3.5500    -5.4130 nb         1 12S      -0.774500
     26 C16         11.2070    -4.2310    -5.5260 ca         1 12S       0.712200
     27 N16         11.3730    -5.4140    -4.8160 nv         1 12S      -1.015000
     28 C15         12.2300    -3.7730    -6.3500 ca         1 12S      -0.315800
     29 C14         12.0570    -2.5880    -7.0430 ca         1 12S      -0.002300
     30 C17         13.1400    -2.0590    -7.9460 c3         1 12S      -0.052300
     31 H1          -0.5000    -0.3320    -0.8010 hn         1 12S       0.441300
     32 H2          -0.5000     0.3530     0.7920 hn         1 12S       0.441300
     33 H3           1.5470     0.1820     2.1350 ha         1 12S       0.140000
     34 H4           3.6000    -0.3060     3.2970 hc         1 12S       0.049867
     35 H5           4.6230     0.9960     2.6750 hc         1 12S       0.049867
     36 H6           5.0750    -0.6910     2.4000 hc         1 12S       0.049867
     37 H7           5.1940     0.0040    -0.0770 ha         1 12S       0.132500
     38 H8           5.1340    -0.0870    -2.3750 hc         1 12S       0.051450
     39 H9           3.8460     0.9170    -3.0540 hc         1 12S       0.051450
     40 H10          3.7940    -2.1140    -2.8290 hc         1 12S       0.067200
     41 H11          2.5060    -1.1100    -3.5100 hc         1 12S       0.067200
     42 H12          5.9000    -2.4120    -4.0020 ha         1 12S       0.149000
     43 H13          2.7800    -0.0060    -5.6490 ha         1 12S       0.128500
     44 H14          4.0380    -0.3000    -9.0790 hc         1 12S       0.060200
     45 H15          2.6810     0.2060    -8.0630 hc         1 12S       0.060200
     46 H16          5.3580     1.6320    -8.2780 hc         1 12S       0.068700
     47 H17          4.0010     2.1380    -7.2610 hc         1 12S       0.068700
     48 H18          2.5860     2.3890    -9.2740 hx         1 12S       0.111700
     49 H19          3.9420     1.8840   -10.2910 hx         1 12S       0.111700
     50 H20          5.1590     3.7580    -9.4850 hn         1 12S       0.456467
     51 H21          3.9090     4.2240    -8.5400 hn         1 12S       0.456467
     52 H23          6.0630    -1.2150    -8.0980 ha         1 12S       0.128500
     53 H24          7.5060    -2.9730    -7.2520 hc         1 12S       0.067200
     54 H25          7.4370    -3.4730    -5.5560 hc         1 12S       0.067200
     55 H26          8.4850    -1.3350    -4.8840 hc         1 12S       0.051450
     56 H27          8.5550    -0.8360    -6.5800 hc         1 12S       0.051450
     57 H28         10.6880    -0.9770    -7.4300 ha         1 12S       0.132500
     58 H29         10.6600    -5.7240    -4.1860 hn         1 12S       0.441300
     59 H30         12.2140    -5.9470    -4.9200 hn         1 12S       0.441300
     60 H31         13.1540    -4.3310    -6.4390 ha         1 12S       0.140000
     61 H32         13.4000    -1.0510    -7.6460 hc         1 12S       0.049867
     62 H33         14.0140    -2.6940    -7.8730 hc         1 12S       0.049867
     63 H34         12.7850    -2.0500    -8.9700 hc         1 12S       0.049867
     64 H103         3.7520     4.2550   -10.1620 hn         1 12S       0.456467
@<TRIPOS>BOND
     1    30    29 1   
     2    29    28 ar  
     3    29    24 ar  
     4    28    26 ar  
     5    24    23 ar  
     6    26    27 1   
     7    26    25 ar  
     8    23    25 ar  
     9    23    22 1   
    10    21    22 1   
    11    21    20 1   
    12    19    20 ar  
    13    19    14 ar  
    14    15    14 1   
    15    15    16 1   
    16    20    12 ar  
    17    14    13 ar  
    18    18    17 1   
    19    16    17 1   
    20    12    11 ar  
    21    13    11 ar  
    22    11    10 1   
    23    10     9 1   
    24     9     8 1   
    25     8     7 ar  
    26     8     6 ar  
    27     7     2 ar  
    28     6     4 ar  
    29     2     1 1   
    30     2     3 ar  
    31     4     3 ar  
    32     4     5 1   
    33     1    31 1   
    34     1    32 1   
    35     3    33 1   
    36     5    34 1   
    37     5    35 1   
    38     5    36 1   
    39     6    37 1   
    40     9    38 1   
    41     9    39 1   
    42    10    40 1   
    43    10    41 1   
    44    12    42 1   
    45    13    43 1   
    46    15    44 1   
    47    15    45 1   
    48    16    46 1   
    49    16    47 1   
    50    17    48 1   
    51    17    49 1   
    52    18    50 1   
    53    18    51 1   
    54    19    52 1   
    55    21    53 1   
    56    21    54 1   
    57    22    55 1   
    58    22    56 1   
    59    24    57 1   
    60    27    58 1   
    61    27    59 1   
    62    28    60 1   
    63    30    61 1   
    64    30    62 1   
    65    30    63 1   
    66    64    18 1   
@<TRIPOS>SUBSTRUCTURE
     1 12S         1 TEMP              0 ****  ****    0 ROOT
