@<TRIPOS>MOLECULE
12T
   18    18     1     0     0
SMALL
bcc


@<TRIPOS>ATOM
      1 NAA          0.0000     0.0000     0.0000 nv         1 12T      -0.512200
      2 OAB          5.5580     0.0000    -2.4930 o          1 12T      -0.917300
      3 OAC          0.1580    -0.1100     2.5000 o          1 12T      -0.918800
      4 OAD          3.6030     0.0020    -3.5420 o          1 12T      -0.917300
      5 OAE          2.0430     0.1190     3.6480 o          1 12T      -0.918800
      6 CAF          4.1750     0.0000     0.0000 ca         1 12T      -0.120000
      7 CAG          3.4940     0.0000     1.1960 ca         1 12T      -0.098000
      8 CAH          2.0810     0.0010    -1.2080 ca         1 12T      -0.138000
      9 CAI          4.2120     0.0010    -2.4910 c          1 12T       0.991200
     10 CAJ          1.3670    -0.0000     2.4890 c          1 12T       0.995200
     11 CAK          1.3890    -0.0000    -0.0060 ca         1 12T       0.016600
     12 CAL          3.4730     0.0000    -1.2080 ca         1 12T      -0.125600
     13 CAM          2.0960    -0.0010     1.2060 ca         1 12T      -0.158600
     14 HNAA        -0.4990     0.8090     0.3140 hn         1 12T       0.248800
     15 HNAB        -0.5020    -0.8080    -0.3110 hn         1 12T       0.248800
     16 HAF          5.2580     0.0010    -0.0050 ha         1 12T       0.110000
     17 HAG          4.0420    -0.0000     2.1300 ha         1 12T       0.109000
     18 HAH          1.5390     0.0010    -2.1460 ha         1 12T       0.107000
@<TRIPOS>BOND
     1     1    11 1   
     2     1    14 1   
     3     1    15 1   
     4     2     9 1   
     5     3    10 1   
     6     4     9 1   
     7     5    10 1   
     8     6     7 ar  
     9     6    12 ar  
    10     6    16 1   
    11     7    13 ar  
    12     7    17 1   
    13     8    11 ar  
    14     8    12 ar  
    15     8    18 1   
    16     9    12 1   
    17    10    13 1   
    18    11    13 ar  
@<TRIPOS>SUBSTRUCTURE
     1 12T         1 TEMP              0 ****  ****    0 ROOT
