@<TRIPOS>MOLECULE
12T
   18    18     1     0     0
SMALL
bcc


@<TRIPOS>ATOM
      1 NAA         -0.0780    -0.3740    -0.0170 nv         1 12T      -0.811200
      2 OAB          3.5120     0.1040    -3.6210 o          1 12T      -0.863300
      3 OAC          1.9810    -0.4290     3.6070 o          1 12T      -0.866800
      4 OAD          5.4410     0.1160    -2.5260 o          1 12T      -0.863300
      5 OAE          0.1840     0.4860     2.6950 o          1 12T      -0.866800
      6 CAF          4.1200     0.0760    -0.0080 ca         1 12T      -0.161000
      7 CAG          3.4260     0.0410     1.1970 ca         1 12T      -0.119000
      8 CAH          2.0400    -0.1120    -1.2000 ca         1 12T      -0.163000
      9 CAI          4.1720     0.0800    -2.5380 c          1 12T       0.905200
     10 CAJ          1.3540    -0.0040     2.5910 c          1 12T       0.911200
     11 CAK          1.3230    -0.1590     0.0180 ca         1 12T       0.090600
     12 CAL          3.4280     0.0110    -1.2220 ca         1 12T      -0.119600
     13 CAM          2.0320    -0.0530     1.2400 ca         1 12T      -0.176600
     14 HNAA        -0.5090     0.2700    -0.6500 hn         1 12T       0.363800
     15 HNAB        -0.4820    -0.2740     0.8990 hn         1 12T       0.363800
     16 HAF          5.2170     0.1570    -0.0320 ha         1 12T       0.125000
     17 HAG          3.9660     0.0890     2.1560 ha         1 12T       0.121000
     18 HAH          1.5130    -0.1700    -2.1650 ha         1 12T       0.131000
@<TRIPOS>BOND
     1     1    11 1   
     2     1    14 1   
     3     1    15 1   
     4     2     9 1   
     5     3    10 1   
     6     4     9 1   
     7     5    10 1   
     8     6     7 ar  
     9     6    12 ar  
    10     6    16 1   
    11     7    13 ar  
    12     7    17 1   
    13     8    11 ar  
    14     8    12 ar  
    15     8    18 1   
    16     9    12 1   
    17    10    13 1   
    18    11    13 ar  
@<TRIPOS>SUBSTRUCTURE
     1 12T         1 TEMP              0 ****  ****    0 ROOT
