@<TRIPOS>MOLECULE
12U
   65    67     1     0     0
SMALL
bcc


@<TRIPOS>ATOM
      1 C14         0.2880   -0.2870    0.5040 c         1 12U      0.656100
      2 O32         1.2820   -1.0340    0.5980 o         1 12U     -0.592100
      3 C5         -0.5240    0.1120    1.7420 c3        1 12U      0.034800
      4 N21         0.1030   -0.3740    2.9980 n4        1 12U     -0.765000
      5 C49        -0.8140   -0.2050    4.2060 c3        1 12U      0.137500
      6 C48         0.0290   -0.1630    5.4890 c3        1 12U     -0.100900
      7 C47        -0.7410    0.4780    6.6270 c3        1 12U     -0.081400
      8 C46        -2.0540   -0.1990    6.9540 c3        1 12U     -0.091400
      9 C52        -3.1450    0.1090    5.9510 c3        1 12U     -0.091400
     10 C51        -3.1960   -0.8350    4.7680 c3        1 12U     -0.081400
     11 C50        -1.8520   -1.3310    4.2710 c3        1 12U     -0.100900
     12 N1         -0.1000    0.2220   -0.7180 n         1 12U     -0.453800
     13 C1          0.4890   -0.2500   -1.9560 c3        1 12U      0.061700
     14 C7          1.8610    0.3980   -2.2250 c         1 12U      0.522100
     15 O22         2.3850    1.3440   -1.6700 o         1 12U     -0.375100
     16 C2         -0.4880    0.1260   -3.0980 c3        1 12U     -0.094400
     17 C3         -1.5900    0.9710   -2.4640 c3        1 12U     -0.093400
     18 C4         -1.3090    1.0030   -0.9540 c3        1 12U      0.078000
     19 N23         2.6650   -0.2650   -3.3400 n4        1 12U     -0.684800
     20 C24         3.5020    0.7150   -4.1070 c3        1 12U      0.155100
     21 C25         4.4230    0.0630   -5.0890 ca        1 12U     -0.136300
     22 C30         5.6680   -0.4200   -4.6680 ca        1 12U     -0.091000
     23 C29         6.5740   -0.9320   -5.5980 ca        1 12U     -0.081000
     24 C28         6.2340   -0.9610   -6.9560 ca        1 12U     -0.209900
     25 C9          7.1760   -1.5560   -7.9390 ce        1 12U      0.563800
     26 N10         7.3780   -2.7700   -8.2690 n2        1 12U     -0.665100
     27 N11         8.0150   -0.5240   -8.6410 n4        1 12U     -0.819600
     28 C27         4.9890   -0.4850   -7.3820 ca        1 12U     -0.081000
     29 C26         4.0850    0.0240   -6.4470 ca        1 12U     -0.091000
     30 H5         -0.6200    1.2370    1.7960 hx        1 12U      0.138700
     31 H5A        -1.5610   -0.3350    1.6620 hx        1 12U      0.138700
     32 HN21        0.9770    0.1410    3.1630 hn        1 12U      0.462300
     33 H49        -1.3310    0.7920    4.0680 hx        1 12U      0.109700
     34 H48         0.9670    0.4360    5.3320 hc        1 12U      0.066450
     35 H48A        0.3330   -1.2040    5.7780 hc        1 12U      0.066450
     36 H47        -0.9220    1.5620    6.3950 hc        1 12U      0.068700
     37 H47A       -0.0800    0.4410    7.5370 hc        1 12U      0.068700
     38 H46        -2.3870    0.1710    7.9640 hc        1 12U      0.066950
     39 H46A       -1.9090   -1.3070    7.0460 hc        1 12U      0.066950
     40 H52        -3.0350    1.1660    5.5890 hc        1 12U      0.066950
     41 H52A       -4.1410    0.0560    6.4730 hc        1 12U      0.066950
     42 H51        -3.8000   -1.7420    5.0470 hc        1 12U      0.068700
     43 H51A       -3.7390   -0.3270    3.9270 hc        1 12U      0.068700
     44 H50        -1.4760   -2.1380    4.9570 hc        1 12U      0.066450
     45 H50A       -2.0090   -1.8070    3.2650 hc        1 12U      0.066450
     46 H1          0.6570   -1.3680   -1.8900 h1        1 12U      0.114700
     47 H2         -0.9130   -0.8110   -3.5410 hc        1 12U      0.080200
     48 H2A         0.0260    0.6960   -3.9100 hc        1 12U      0.080200
     49 H3         -1.5900    2.0110   -2.8790 hc        1 12U      0.101200
     50 H3A        -2.5980    0.5260   -2.6650 hc        1 12U      0.101200
     51 H4         -1.1420    2.0580   -0.5970 h1        1 12U      0.079700
     52 H4A        -2.1700    0.5590   -0.3810 h1        1 12U      0.079700
     53 HN23        2.0240   -0.7460   -3.9790 hn        1 12U      0.461800
     54 H24         2.7950    1.4210   -4.6350 hx        1 12U      0.129700
     55 H24A        4.1010    1.3140   -3.3560 hx        1 12U      0.129700
     56 H30         5.9560   -0.3800   -3.6040 ha        1 12U      0.167000
     57 H29         7.5510   -1.3120   -5.2520 ha        1 12U      0.175500
     58 HN10        6.8520   -3.5050   -7.8400 hn        1 12U      0.499400
     59 HN11        8.6410   -0.9550   -9.3420 hn        1 12U      0.480800
     60 HN1A        7.3940    0.1430   -9.1110 hn        1 12U      0.480800
     61 H27         4.7060   -0.5150   -8.4480 ha        1 12U      0.175500
     62 H26         3.1130    0.4110   -6.7980 ha        1 12U      0.167000
     63 H212        0.3470   -1.3690    2.8930 hn        1 12U      0.462300
     64 H232        3.2810   -0.9710   -2.9150 hn        1 12U      0.461800
     65 H113        8.5850   -0.0290   -7.9460 hn        1 12U      0.480800
@<TRIPOS>BOND
     1    1    2 2   
     2    1    3 1   
     3    1   12 1   
     4    3    4 1   
     5    3   30 1   
     6    3   31 1   
     7    4    5 1   
     8    4   32 1   
     9    4   63 1   
    10    5    6 1   
    11    5   11 1   
    12    5   33 1   
    13    6    7 1   
    14    6   34 1   
    15    6   35 1   
    16    7    8 1   
    17    7   36 1   
    18    7   37 1   
    19    8    9 1   
    20    8   38 1   
    21    8   39 1   
    22    9   10 1   
    23    9   40 1   
    24    9   41 1   
    25   10   11 1   
    26   10   42 1   
    27   10   43 1   
    28   11   44 1   
    29   11   45 1   
    30   12   13 1   
    31   12   18 1   
    32   13   14 1   
    33   13   16 1   
    34   13   46 1   
    35   14   15 2   
    36   14   19 1   
    37   16   17 1   
    38   16   47 1   
    39   16   48 1   
    40   17   18 1   
    41   17   49 1   
    42   17   50 1   
    43   18   51 1   
    44   18   52 1   
    45   19   20 1   
    46   19   53 1   
    47   19   64 1   
    48   20   21 1   
    49   20   54 1   
    50   20   55 1   
    51   21   22 ar  
    52   21   29 ar  
    53   22   23 ar  
    54   22   56 1   
    55   23   24 ar  
    56   23   57 1   
    57   24   25 1   
    58   24   28 ar  
    59   25   26 2   
    60   25   27 1   
    61   26   58 1   
    62   27   59 1   
    63   27   60 1   
    64   27   65 1   
    65   28   29 ar  
    66   28   61 1   
    67   29   62 1   
@<TRIPOS>SUBSTRUCTURE
     1 12U         1 TEMP              0 ****  ****    0 ROOT
