@<TRIPOS>MOLECULE
molecule
   63    65     1     0     0
SMALL
bcc


@<TRIPOS>ATOM
      1 C14          0.0000     0.0000     0.0000 c          1 12U       0.682100
      2 O32          1.2130     0.0000     0.0000 o          1 12U      -0.581100
      3 C5          -0.7530     0.0000     1.3040 c3         1 12U       0.093800
      4 N21          0.2000     0.0000     2.4210 n7         1 12U      -0.800200
      5 C49         -0.5020     0.0010     3.7130 c3         1 12U       0.166500
      6 C48          0.4080     0.6160     4.7960 c3         1 12U      -0.075400
      7 C47         -0.3410     1.0670     5.9590 c3         1 12U      -0.080400
      8 C46         -1.0780    -0.0860     6.6680 c3         1 12U      -0.079900
      9 C52         -2.3420    -0.3840     5.9100 c3         1 12U      -0.079900
     10 C51         -2.1600    -1.5150     4.8790 c3         1 12U      -0.080400
     11 C50         -0.8290    -1.4130     4.1100 c3         1 12U      -0.075400
     12 N1          -0.6730    -0.0010    -1.1680 n          1 12U      -0.490800
     13 C1          -0.0670    -0.0970    -2.5080 c3         1 12U       0.048700
     14 C7           1.2310     0.6670    -2.5530 c          1 12U       0.663100
     15 O22          1.3940     1.6310    -1.8350 o          1 12U      -0.560100
     16 C2          -1.1050     0.5500    -3.4590 c3         1 12U      -0.088400
     17 C3          -2.4420     0.0790    -2.8270 c3         1 12U      -0.092400
     18 C4          -2.1320     0.0930    -1.3150 c3         1 12U       0.097000
     19 N23          2.2150     0.2760    -3.3870 ns         1 12U      -0.596900
     20 C24          3.4800     1.0150    -3.4270 c3         1 12U       0.153300
     21 C25          4.4020     0.3790    -4.4330 ca         1 12U      -0.046300
     22 C30          5.2710    -0.6230    -4.0370 ca         1 12U      -0.102500
     23 C29          6.1140    -1.2130    -4.9560 ca         1 12U      -0.086500
     24 C28          6.0970    -0.7920    -6.2850 ca         1 12U      -0.198900
     25 C9           7.0040    -1.4170    -7.2750 ce         1 12U       0.542800
     26 N10          6.9850    -1.0200    -8.5160 n2         1 12U      -0.682100
     27 N11          7.8660    -2.4170    -6.8840 nz         1 12U      -0.801600
     28 C27          5.2220     0.2220    -6.6790 ca         1 12U      -0.086500
     29 C26          4.3800     0.8010    -5.7510 ca         1 12U      -0.102500
     30 H5          -1.3770     0.8840     1.3610 h1         1 12U       0.052200
     31 H5A         -1.3760    -0.8850     1.3610 h1         1 12U       0.052200
     32 HN21         0.7860     0.8090     2.3590 hn         1 12U       0.372800
     33 H49         -1.4160     0.5780     3.6370 h1         1 12U       0.029700
     34 H48          1.1280    -0.1300     5.1120 hc         1 12U       0.047700
     35 H48A         0.9360     1.4610     4.3710 hc         1 12U       0.047700
     36 H47         -1.0700     1.8030     5.6400 hc         1 12U       0.039950
     37 H47A         0.3450     1.5270     6.6600 hc         1 12U       0.039950
     38 H46         -1.3230     0.2080     7.6810 hc         1 12U       0.043200
     39 H46A        -0.4460    -0.9670     6.6810 hc         1 12U       0.043200
     40 H52         -2.6580     0.5130     5.3910 hc         1 12U       0.043200
     41 H52A        -3.1110    -0.6760     6.6150 hc         1 12U       0.043200
     42 H51         -2.1900    -2.4660     5.3970 hc         1 12U       0.039950
     43 H51A        -2.9770    -1.4730     4.1680 hc         1 12U       0.039950
     44 H50         -0.8950    -2.0200     3.2150 hc         1 12U       0.047700
     45 H50A        -0.0320    -1.7920     4.7390 hc         1 12U       0.047700
     46 H1           0.0900    -1.1350    -2.7750 h1         1 12U       0.056700
     47 H2          -0.9980     0.1650    -4.4660 hc         1 12U       0.063700
     48 H2A         -1.0270     1.6300    -3.4380 hc         1 12U       0.063700
     49 H3          -3.2400     0.7740    -3.0590 hc         1 12U       0.061200
     50 H3A         -2.6890    -0.9230    -3.1570 hc         1 12U       0.061200
     51 H4          -2.4880     1.0170    -0.8760 h1         1 12U       0.050200
     52 H4A         -2.6050    -0.7560    -0.8360 h1         1 12U       0.050200
     53 HN23         2.0840    -0.5240    -3.9740 hn         1 12U       0.309500
     54 H24          3.9420     0.9910    -2.4480 h1         1 12U       0.076200
     55 H24A         3.2890     2.0420    -3.7110 h1         1 12U       0.076200
     56 H30          5.2830    -0.9490    -3.0040 ha         1 12U       0.168500
     57 H29          6.7930    -1.9970    -4.6440 ha         1 12U       0.138500
     58 HN10         7.5970    -1.4420    -9.1860 hn         1 12U       0.432400
     59 HN11         8.4840    -2.0680    -6.1780 hn         1 12U       0.465467
     60 HN1A         7.3410    -3.1860    -6.5170 hn         1 12U       0.465467
     61 H27          5.2040     0.5530    -7.7100 ha         1 12U       0.138500
     62 H26          3.7010     1.5880    -6.0560 ha         1 12U       0.168500
     63 H113         8.4000    -2.7240    -7.6720 hn         1 12U       0.465467
@<TRIPOS>BOND
     1    15    14 2
     2    14    19 1
     3    14    13 1
     4    19    20 1
     5    20    21 1
     6    21    29 ar
     7    21    22 ar
     8    29    28 ar
     9    28    24 ar
    10    24    25 1
    11    24    23 ar
    12    25    26 2
    13    25    27 1
    14    23    22 ar
    15    13    16 1
    16    13    12 1
    17    16    17 1
    18    17    18 1
    19    18    12 1
    20    12     1 1
    21     1     2 2
    22     1     3 1
    23     3     4 1
    24     4     5 1
    25     5     6 1
    26     5    11 1
    27     6     7 1
    28     7     8 1
    29     8     9 1
    30     9    10 1
    31    10    11 1
    32    19    53 1
    33    20    54 1
    34    20    55 1
    35    29    62 1
    36    28    61 1
    37    26    58 1
    38    27    59 1
    39    27    60 1
    40    23    57 1
    41    22    56 1
    42    13    46 1
    43    16    47 1
    44    16    48 1
    45    17    49 1
    46    17    50 1
    47    18    51 1
    48    18    52 1
    49     3    30 1
    50     3    31 1
    51     4    32 1
    52     5    33 1
    53     6    34 1
    54     6    35 1
    55     7    36 1
    56     7    37 1
    57     8    38 1
    58     8    39 1
    59     9    40 1
    60     9    41 1
    61    10    42 1
    62    10    43 1
    63    11    44 1
    64    11    45 1
    65    63    27 1
@<TRIPOS>SUBSTRUCTURE
     1 12U         1 TEMP              0 ****  ****    0 ROOT
