@<TRIPOS>MOLECULE
12U
   65    67     1     0     0
SMALL
bcc


@<TRIPOS>ATOM
      1 C14          0.1890    -1.1560    -0.6600 c          1 12U       0.665100
      2 O32          1.4170    -0.9120    -0.5630 o          1 12U      -0.672100
      3 C5          -0.5510    -1.9670     0.4090 c3         1 12U       0.034800
      4 N21          0.3470    -2.4440     1.4870 ny         1 12U      -0.766000
      5 C49         -0.4000    -3.2250     2.5710 c3         1 12U       0.144500
      6 C48         -1.0570    -2.2740     3.5710 c3         1 12U      -0.105900
      7 C47         -0.1420    -1.7850     4.6750 c3         1 12U      -0.078400
      8 C46         -0.1920    -2.6750     5.9000 c3         1 12U      -0.089400
      9 C52          0.5050    -4.0050     5.7210 c3         1 12U      -0.089400
     10 C51          0.0360    -4.7940     4.5170 c3         1 12U      -0.078400
     11 C50          0.5640    -4.2330     3.2080 c3         1 12U      -0.105900
     12 N1          -0.5300    -0.6840    -1.7230 n          1 12U      -0.444800
     13 C1           0.1080    -0.0800    -2.8810 c3         1 12U       0.056700
     14 C7           0.8120     1.2380    -2.5100 c          1 12U       0.518100
     15 O22          0.2850     2.2990    -2.2330 o          1 12U      -0.369100
     16 C2          -1.0070     0.2050    -3.9210 c3         1 12U      -0.085400
     17 C3          -2.3090    -0.3060    -3.3110 c3         1 12U      -0.091400
     18 C4          -1.9690    -0.8500    -1.9170 c3         1 12U       0.078000
     19 N23          2.3270     1.1790    -2.4900 ny         1 12U      -0.681800
     20 C24          2.9770     2.5090    -2.2490 c3         1 12U       0.156100
     21 C25          4.3800     2.5790    -2.7640 ca         1 12U      -0.135300
     22 C30          5.4580     2.3060    -1.9160 ca         1 12U      -0.090500
     23 C29          6.7690     2.4620    -2.3720 ca         1 12U      -0.077500
     24 C28          6.9980     2.9000    -3.6810 ca         1 12U      -0.158900
     25 C9           8.4010     2.9930    -4.1790 ce         1 12U       0.599800
     26 N10          9.1460     1.9790    -4.3020 n2         1 12U      -0.647100
     27 N11          8.7840     4.4340    -4.4940 nz         1 12U      -0.879600
     28 C27          5.9250     3.1700    -4.5380 ca         1 12U      -0.077500
     29 C26          4.6180     3.0100    -4.0760 ca         1 12U      -0.090500
     30 H5          -1.0370    -2.8660    -0.0790 hx         1 12U       0.142200
     31 H5A         -1.3650    -1.3280     0.8670 hx         1 12U       0.142200
     32 HN21         1.0760    -3.0450     1.0810 hn         1 12U       0.460800
     33 H49         -1.2140    -3.8000     2.0320 hx         1 12U       0.100700
     34 H48         -1.5090    -1.3970     3.0340 hc         1 12U       0.072950
     35 H48A        -1.9200    -2.8390     4.0270 hc         1 12U       0.072950
     36 H47          0.9140    -1.7030     4.3060 hc         1 12U       0.061200
     37 H47A        -0.4720    -0.7540     4.9770 hc         1 12U       0.061200
     38 H46          0.2960    -2.1320     6.7550 hc         1 12U       0.069950
     39 H46A        -1.2620    -2.8470     6.1920 hc         1 12U       0.069950
     40 H52          1.6150    -3.8440     5.6560 hc         1 12U       0.069950
     41 H52A         0.3210    -4.6250     6.6420 hc         1 12U       0.069950
     42 H51         -1.0830    -4.8530     4.5000 hc         1 12U       0.061200
     43 H51A         0.4190    -5.8480     4.6140 hc         1 12U       0.061200
     44 H50          1.5660    -3.7610     3.4000 hc         1 12U       0.072950
     45 H50A         0.7190    -5.0790     2.4840 hc         1 12U       0.072950
     46 H1           0.8660    -0.8040    -3.3040 h1         1 12U       0.096700
     47 H2          -0.7690    -0.3360    -4.8730 hc         1 12U       0.098200
     48 H2A         -1.0800     1.2990    -4.1460 hc         1 12U       0.098200
     49 H3          -3.0640     0.5180    -3.2330 hc         1 12U       0.104700
     50 H3A         -2.7550    -1.1140    -3.9460 hc         1 12U       0.104700
     51 H4          -2.5180    -0.2800    -1.1160 h1         1 12U       0.079700
     52 H4A         -2.2360    -1.9410    -1.8370 h1         1 12U       0.079700
     53 HN23         2.5940     0.5120    -1.7450 hn         1 12U       0.472800
     54 H24          2.9500     2.7050    -1.1370 hx         1 12U       0.128700
     55 H24A         2.3460     3.3030    -2.7540 hx         1 12U       0.128700
     56 H30          5.2870     1.9790    -0.8760 ha         1 12U       0.166000
     57 H29          7.6130     2.2280    -1.6990 ha         1 12U       0.173000
     58 HN10        10.0910     1.9950    -4.6280 hn         1 12U       0.487400
     59 HN11         9.6670     4.4970    -5.0140 hn         1 12U       0.469467
     60 HN1A         8.0420     4.8690    -5.0520 hn         1 12U       0.469467
     61 H27          6.0930     3.4860    -5.5800 ha         1 12U       0.173000
     62 H26          3.7780     3.2440    -4.7520 ha         1 12U       0.166000
     63 H113         8.8830     4.9560    -3.6160 hn         1 12U       0.469467
     64 H212         0.8170    -1.6410     1.9260 hn         1 12U       0.460800
     65 H232         2.6520     0.7990    -3.3860 hn         1 12U       0.472800
@<TRIPOS>BOND
     1     1     2 2   
     2     1     3 1   
     3     1    12 1   
     4     3     4 1   
     5     3    30 1   
     6     3    31 1   
     7     4     5 1   
     8     4    32 1   
     9     4    64 1   
    10     5     6 1   
    11     5    11 1   
    12     5    33 1   
    13     6     7 1   
    14     6    34 1   
    15     6    35 1   
    16     7     8 1   
    17     7    36 1   
    18     7    37 1   
    19     8     9 1   
    20     8    38 1   
    21     8    39 1   
    22     9    10 1   
    23     9    40 1   
    24     9    41 1   
    25    10    11 1   
    26    10    42 1   
    27    10    43 1   
    28    11    44 1   
    29    11    45 1   
    30    12    13 1   
    31    12    18 1   
    32    13    14 1   
    33    13    16 1   
    34    13    46 1   
    35    14    15 2   
    36    14    19 1   
    37    16    17 1   
    38    16    47 1   
    39    16    48 1   
    40    17    18 1   
    41    17    49 1   
    42    17    50 1   
    43    18    51 1   
    44    18    52 1   
    45    19    20 1   
    46    19    53 1   
    47    19    65 1   
    48    20    21 1   
    49    20    54 1   
    50    20    55 1   
    51    21    22 ar  
    52    21    29 ar  
    53    22    23 ar  
    54    22    56 1   
    55    23    24 ar  
    56    23    57 1   
    57    24    25 1   
    58    24    28 ar  
    59    25    26 2   
    60    25    27 1   
    61    26    58 1   
    62    27    59 1   
    63    27    60 1   
    64    27    63 1   
    65    28    29 ar  
    66    28    61 1   
    67    29    62 1   
@<TRIPOS>SUBSTRUCTURE
     1 12U         1 TEMP              0 ****  ****    0 ROOT
