@<TRIPOS>MOLECULE
12W
   18    17     1     0     0
SMALL
bcc


@<TRIPOS>ATOM
      1 C25         0.2830   -0.0660   -1.0020 c         1 12W      0.497100
      2 O26         0.2770    0.8990   -0.1890 o         1 12W     -0.580500
      3 O27         0.1540   -1.3210   -0.3990 oh        1 12W     -0.710100
      4 C28        -0.0650    0.2300    2.9250 c2        1 12W     -0.189700
      5 C29        -0.1690   -1.2490    3.1540 c3        1 12W     -0.056700
      6 C30        -0.3280   -1.4120    4.6730 c3        1 12W     -0.083400
      7 C31        -0.3070    0.0060    5.2620 c3        1 12W     -0.056700
      8 C32        -0.1400    0.9130    4.0800 c2        1 12W     -0.189700
      9 H26         0.0840   -1.1840    0.5530 ho        1 12W      0.382000
     10 H27         0.0580    0.6260    1.9010 ha        1 12W      0.172500
     11 H28        -1.0480   -1.6690    2.6030 hc        1 12W      0.041950
     12 H29         0.7470   -1.7690    2.7800 hc        1 12W      0.041950
     13 H30         0.5040   -2.0260    5.0930 hc        1 12W      0.027700
     14 H31        -1.2880   -1.9260    4.9170 hc        1 12W      0.027700
     15 H32        -1.2570    0.2300    5.8080 hc        1 12W      0.041950
     16 H33         0.5380    0.1300    5.9850 hc        1 12W      0.041950
     17 H34        -0.0930    1.9930    4.2100 ha        1 12W      0.172500
     18 OXT         0.3830   -0.1160   -2.2470 o         1 12W     -0.580500
@<TRIPOS>BOND
     1    1    2 1   
     2    1    3 1   
     3    1   18 1   
     4    3    9 1   
     5    4    5 1   
     6    4    8 2   
     7    4   10 1   
     8    5    6 1   
     9    5   11 1   
    10    5   12 1   
    11    6    7 1   
    12    6   13 1   
    13    6   14 1   
    14    7    8 1   
    15    7   15 1   
    16    7   16 1   
    17    8   17 1   
@<TRIPOS>SUBSTRUCTURE
     1 12W         1 TEMP              0 ****  ****    0 ROOT
