@<TRIPOS>MOLECULE
molecule
   18    18     1     0     0
SMALL
bcc


@<TRIPOS>ATOM
      1 C25          0.0000     0.0000     0.0000 c          1 12W       0.469100
      2 O26          1.2140     0.0000     0.0000 o          1 12W      -0.585500
      3 O27         -0.6720     0.0000     1.1660 os         1 12W      -0.470900
      4 C28          0.1200    -0.0000     2.3830 c3         1 12W       0.164100
      5 C29          0.3480    -1.4480     2.8650 c3         1 12W      -0.091400
      6 C30          0.2750    -1.3500     4.4090 c3         1 12W      -0.087900
      7 C31         -0.8520    -0.3100     4.6340 c3         1 12W      -0.087900
      8 C32         -0.6430     0.7230     3.5070 c3         1 12W      -0.091400
      9 H26          1.0730     0.4860     2.2120 h1         1 12W       0.063700
     10 H27          1.3240    -1.8000     2.5540 hc         1 12W       0.047450
     11 H28         -0.4340    -2.0980     2.4910 hc         1 12W       0.047450
     12 H29          0.0050    -2.3060     4.8400 hc         1 12W       0.028200
     13 H30          1.2140    -0.9900     4.8130 hc         1 12W       0.028200
     14 H31         -0.7430     0.1610     5.6030 hc         1 12W       0.028200
     15 H32         -1.8230    -0.7810     4.5400 hc         1 12W       0.028200
     16 H33         -0.0580     1.5570     3.8740 hc         1 12W       0.047450
     17 H34         -1.6030     1.0680     3.1400 hc         1 12W       0.047450
     18 OXT         -0.6730    -0.0100    -1.1650 o          1 12W      -0.585500
@<TRIPOS>BOND
     1     1     3 1   
     2     1     2 1   
     3     3     4 1   
     4     5     4 1   
     5     5     6 1   
     6     4     8 1   
     7     6     7 1   
     8     7     8 1   
     9     4     9 1   
    10     5    10 1   
    11     5    11 1   
    12     6    12 1   
    13     6    13 1   
    14     7    14 1   
    15     7    15 1   
    16     8    16 1   
    17     8    17 1   
    18     1    18 1   
@<TRIPOS>SUBSTRUCTURE
     1 12W         1 TEMP              0 ****  ****    0 ROOT
