@<TRIPOS>MOLECULE
12Z
   39    41     1     0     0
SMALL
bcc


@<TRIPOS>ATOM
      1 C1           0.0000     0.0000     0.0000 cc         1 12Z      -0.387000
      2 C2           1.3830     0.0000     0.0000 cd         1 12Z       0.597200
      3 N3           1.9080     0.0000     1.2030 nd         1 12Z      -0.739000
      4 C4           1.0860    -0.0010     2.2130 cc         1 12Z       0.618300
      5 S5          -0.5350    -0.0020     1.6780 ss         1 12Z      -0.320300
      6 C6          -0.8300     0.0050    -1.1360 c          1 12Z       0.727300
      7 N7           2.1420     0.0010    -1.1580 nv         1 12Z      -0.471500
      8 N8           1.4730    -0.0030     3.5340 nu         1 12Z      -0.431900
      9 O9          -0.3430    -0.1120    -2.2480 o          1 12Z      -0.631100
     10 C10         -5.0000     0.3850    -0.7690 ca         1 12Z       0.420200
     11 N11         -4.4680    -0.2520    -1.7940 nb         1 12Z      -0.596000
     12 C12         -3.1660    -0.3840    -1.9310 ca         1 12Z       0.458200
     13 C13         -2.2940     0.1540    -0.9830 ca         1 12Z      -0.281900
     14 C14         -2.8290     0.8350     0.1170 ca         1 12Z      -0.058000
     15 C15         -4.2050     0.9450     0.2140 ca         1 12Z      -0.233300
     16 C16          4.5700    -0.6130     5.6330 c3         1 12Z      -0.016900
     17 C17          3.0840    -0.6140     5.2710 c3         1 12Z      -0.038900
     18 C18          2.8960    -0.0020     3.8810 c3         1 12Z       0.121500
     19 C19          3.4220     1.4350     3.8810 c3         1 12Z      -0.038900
     20 C20          4.9080     1.4350     4.2430 c3         1 12Z      -0.016900
     21 C21          5.0940     0.8240     5.6330 c3         1 12Z      -0.028400
     22 HN7          3.1290    -0.1570    -1.1100 hn         1 12Z       0.288300
     23 HN7A         1.7050     0.1670    -2.0430 hn         1 12Z       0.288300
     24 HN8          0.7820     0.0080     4.2580 hn         1 12Z       0.297800
     25 H12         -2.7670    -0.9140    -2.7870 h4         1 12Z      -0.004900
     26 H14         -2.1830     1.2650     0.8730 ha         1 12Z       0.139000
     27 H15         -4.6540     1.4660     1.0510 ha         1 12Z       0.113000
     28 H16          4.7010    -1.0440     6.6180 hc         1 12Z       0.017700
     29 H16A         5.1190    -1.1960     4.9030 hc         1 12Z       0.017700
     30 H17          2.7140    -1.6320     5.2690 hc         1 12Z       0.021200
     31 H17A         2.5360    -0.0270     5.9990 hc         1 12Z       0.021200
     32 H18          3.4490    -0.5860     3.1550 h1         1 12Z       0.062700
     33 H19          3.2920     1.8660     2.8950 hc         1 12Z       0.021200
     34 H19A         2.8730     2.0190     4.6100 hc         1 12Z       0.021200
     35 H20          5.2770     2.4540     4.2460 hc         1 12Z       0.017700
     36 H20A         5.4560     0.8490     3.5160 hc         1 12Z       0.017700
     37 H21          4.5420     1.4080     6.3600 hc         1 12Z       0.015700
     38 H21A         6.1470     0.8230     5.8870 hc         1 12Z       0.015700
     39 H10         -6.0780     0.4700    -0.6960 h4         1 12Z      -0.022900
@<TRIPOS>BOND
     1     1     2 2   
     2     1     5 1   
     3     1     6 1   
     4     2     3 1   
     5     2     7 1   
     6     3     4 2   
     7     4     5 1   
     8     4     8 1   
     9     6     9 2   
    10     6    13 1   
    11     7    22 1   
    12     7    23 1   
    13     8    18 1   
    14     8    24 1   
    15    10    11 ar  
    16    10    15 ar  
    17    10    39 1   
    18    11    12 ar  
    19    12    13 ar  
    20    12    25 1   
    21    13    14 ar  
    22    14    15 ar  
    23    14    26 1   
    24    15    27 1   
    25    16    17 1   
    26    16    21 1   
    27    16    28 1   
    28    16    29 1   
    29    17    18 1   
    30    17    30 1   
    31    17    31 1   
    32    18    19 1   
    33    18    32 1   
    34    19    20 1   
    35    19    33 1   
    36    19    34 1   
    37    20    21 1   
    38    20    35 1   
    39    20    36 1   
    40    21    37 1   
    41    21    38 1   
@<TRIPOS>SUBSTRUCTURE
     1 12Z         1 TEMP              0 ****  ****    0 ROOT
