@<TRIPOS>MOLECULE
12Z
   39    41     1     0     0
SMALL
bcc


@<TRIPOS>ATOM
      1 C1          -0.0460     0.1670     0.0560 cc         1 12Z      -0.428000
      2 C2           1.3780     0.2220     0.0030 cd         1 12Z       0.733200
      3 N3           2.0160     0.1330     1.2580 nd         1 12Z      -0.776000
      4 C4           1.0810    -0.0010     2.2260 cc         1 12Z       0.696300
      5 S5          -0.5640     0.0120     1.6600 ss         1 12Z      -0.135300
      6 C6          -0.9190     0.1870    -1.0850 c          1 12Z       0.649300
      7 N7           2.0970     0.3860    -1.1420 nv         1 12Z      -0.939500
      8 N8           1.3850    -0.2430     3.5560 nu         1 12Z      -0.812900
      9 O9          -0.5040     0.2300    -2.2600 o          1 12Z      -0.594100
     10 C10         -5.0960    -0.1170    -0.5210 ca         1 12Z       0.409200
     11 N11         -4.5190    -0.7850    -1.5400 nb         1 12Z      -0.669000
     12 C12         -3.1880    -0.6590    -1.6880 ca         1 12Z       0.442200
     13 C13         -2.3780     0.1170    -0.8270 ca         1 12Z      -0.268900
     14 C14         -2.9990     0.8090     0.2180 ca         1 12Z      -0.071000
     15 C15         -4.3810     0.6930     0.3780 ca         1 12Z      -0.255300
     16 C16         -0.4490     2.1130     5.9420 c3         1 12Z      -0.076400
     17 C17          0.5860     1.7100     4.9140 c3         1 12Z      -0.092900
     18 C18          0.4560     0.2120     4.5810 c3         1 12Z       0.199500
     19 C19          0.6340    -0.6050     5.8720 c3         1 12Z      -0.092900
     20 C20         -0.4040    -0.1950     6.8950 c3         1 12Z      -0.076400
     21 C21         -0.3280     1.2860     7.2040 c3         1 12Z      -0.081400
     22 HN7          3.0840     0.3210    -1.1270 hn         1 12Z       0.456800
     23 HN7A         1.6090     0.3660    -2.0090 hn         1 12Z       0.456800
     24 HN8          2.3500    -0.1440     3.8060 hn         1 12Z       0.424800
     25 H12         -2.7320    -1.1980    -2.5400 h4         1 12Z       0.041100
     26 H14         -2.4120     1.4500     0.8970 ha         1 12Z       0.149000
     27 H15         -4.9020     1.2250     1.1840 ha         1 12Z       0.144000
     28 H16         -1.4770     1.9890     5.5090 hc         1 12Z       0.045700
     29 H16A        -0.3180     3.1990     6.1900 hc         1 12Z       0.045700
     30 H17          1.6130     1.9190     5.3100 hc         1 12Z       0.051950
     31 H17A         0.4480     2.3200     3.9840 hc         1 12Z       0.051950
     32 H18         -0.5940     0.0270     4.1950 h1         1 12Z       0.066700
     33 H19          1.6610    -0.4380     6.2880 hc         1 12Z       0.051950
     34 H19A         0.5290    -1.6990     5.6490 hc         1 12Z       0.051950
     35 H20         -1.4290    -0.4460     6.5120 hc         1 12Z       0.045700
     36 H20A        -0.2440    -0.7840     7.8360 hc         1 12Z       0.045700
     37 H21         -1.1480     1.5640     7.9160 hc         1 12Z       0.044700
     38 H21A         0.6480     1.5130     7.7090 hc         1 12Z       0.044700
     39 H10         -6.1910    -0.2380    -0.4270 h4         1 12Z       0.023100
@<TRIPOS>BOND
     1     1     2 2   
     2     1     5 1   
     3     1     6 1   
     4     2     3 1   
     5     2     7 1   
     6     3     4 2   
     7     4     5 1   
     8     4     8 1   
     9     6     9 2   
    10     6    13 1   
    11     7    22 1   
    12     7    23 1   
    13     8    18 1   
    14     8    24 1   
    15    10    11 ar  
    16    10    15 ar  
    17    10    39 1   
    18    11    12 ar  
    19    12    13 ar  
    20    12    25 1   
    21    13    14 ar  
    22    14    15 ar  
    23    14    26 1   
    24    15    27 1   
    25    16    17 1   
    26    16    21 1   
    27    16    28 1   
    28    16    29 1   
    29    17    18 1   
    30    17    30 1   
    31    17    31 1   
    32    18    19 1   
    33    18    32 1   
    34    19    20 1   
    35    19    33 1   
    36    19    34 1   
    37    20    21 1   
    38    20    35 1   
    39    20    36 1   
    40    21    37 1   
    41    21    38 1   
@<TRIPOS>SUBSTRUCTURE
     1 12Z         1 TEMP              0 ****  ****    0 ROOT
