@<TRIPOS>MOLECULE
130
   42    45     1     0     0
SMALL
bcc


@<TRIPOS>ATOM
      1 C1           0.0130     0.1030    -0.1160 ca         1 130      -0.248900
      2 C2           1.3810    -0.2390    -0.1320 ca         1 130      -0.073000
      3 C3           2.1040    -0.3620     1.0450 ca         1 130      -0.116000
      4 C4           1.4310    -0.1320     2.2520 ca         1 130      -0.031200
      5 C5           0.0140     0.2330     2.2720 ca         1 130       0.074400
      6 C6          -0.6820     0.3570     1.0700 ca         1 130      -0.055000
      7 C7          -0.6890     0.2410    -1.4090 ce         1 130       0.647800
      8 N1          -1.8680    -0.7530    -1.4560 nz         1 130      -0.897600
      9 N2          -0.3760     1.0330    -2.3420 n2         1 130      -0.682100
     10 N3           1.8250    -0.1830     3.5800 na         1 130      -0.249300
     11 N4          -0.4040     0.4140     3.6000 nc         1 130      -0.572100
     12 C8           0.6940     0.1770     4.3630 cd         1 130       0.539400
     13 C1'          0.7290     0.2350     5.8250 ca         1 130      -0.181900
     14 C2'         -0.4570    -0.0280     6.5300 ca         1 130      -0.046000
     15 C3'         -0.4860     0.0400     7.9180 ca         1 130      -0.165000
     16 C4'          0.6660     0.3700     8.6300 ca         1 130      -0.049000
     17 C5'          1.8670     0.6290     7.9630 cp         1 130      -0.107000
     18 C6'          1.8940     0.5640     6.5530 ca         1 130       0.169100
     19 O6'          3.0400     0.8150     5.8360 oh         1 130      -0.532100
     20 C1B          3.0620     0.9670     8.7380 cp         1 130      -0.072000
     21 C2B          4.2400     0.2180     8.6000 ca         1 130      -0.122000
     22 C3B          5.3620     0.5310     9.3650 ca         1 130      -0.123500
     23 C4B          5.3210     1.5920    10.2700 ca         1 130      -0.112000
     24 C5B          4.1510     2.3380    10.4130 ca         1 130      -0.123500
     25 C6B          3.0240     2.0270     9.6540 ca         1 130      -0.122000
     26 HC2          1.8910    -0.3960    -1.0960 ha         1 130       0.152000
     27 HC3          3.1720    -0.6220     1.0270 ha         1 130       0.165000
     28 HC6         -1.7320     0.6830     1.0790 ha         1 130       0.145000
     29 HH11        -2.4170    -0.6440    -0.5960 hn         1 130       0.454467
     30 HH12        -1.4860    -1.7030    -1.4750 hn         1 130       0.454467
     31 HH21        -0.8490     1.0900    -3.2160 hn         1 130       0.459400
     32 HN3          2.7500    -0.2710     3.9240 hn         1 130       0.338700
     33 HC'2        -1.3760    -0.2870     5.9780 ha         1 130       0.158000
     34 HC'3        -1.4230    -0.1660     8.4570 ha         1 130       0.152000
     35 HC'4         0.6400     0.4250     9.7300 ha         1 130       0.155000
     36 HO6          3.7050     1.1960     6.4330 ho         1 130       0.455000
     37 H2'          4.2700    -0.6290     7.8990 ha         1 130       0.138000
     38 H3'          6.2810    -0.0650     9.2570 ha         1 130       0.143500
     39 H4'          6.2080     1.8360    10.8740 ha         1 130       0.144000
     40 H5'          4.1140     3.1740    11.1290 ha         1 130       0.143500
     41 H6'          2.1000     2.6140     9.7710 ha         1 130       0.138000
     42 H13         -2.4760    -0.6180    -2.2630 hn         1 130       0.454467
@<TRIPOS>BOND
     1     1     2 ar  
     2     1     6 ar  
     3     1     7 1   
     4     2     3 ar  
     5     2    26 1   
     6     3     4 ar  
     7     3    27 1   
     8     4     5 ar  
     9     4    10 1   
    10     5     6 ar  
    11     5    11 1   
    12     6    28 1   
    13     7     8 1   
    14     7     9 2   
    15     8    29 1   
    16     8    30 1   
    17     8    42 1   
    18     9    31 1   
    19    10    12 1   
    20    10    32 1   
    21    11    12 2   
    22    12    13 1   
    23    13    14 ar  
    24    13    18 ar  
    25    14    15 ar  
    26    14    33 1   
    27    15    16 ar  
    28    15    34 1   
    29    16    17 ar  
    30    16    35 1   
    31    17    18 ar  
    32    17    20 1   
    33    18    19 1   
    34    19    36 1   
    35    20    21 ar  
    36    20    25 ar  
    37    21    22 ar  
    38    21    37 1   
    39    22    23 ar  
    40    22    38 1   
    41    23    24 ar  
    42    23    39 1   
    43    24    25 ar  
    44    24    40 1   
    45    25    41 1   
@<TRIPOS>SUBSTRUCTURE
     1 130         1 TEMP              0 ****  ****    0 ROOT
