@<TRIPOS>MOLECULE
molecule
   42    45     1     0     0
SMALL
bcc


@<TRIPOS>ATOM
      1 C1           0.0000     0.0000     0.0000 ca         1 130      -0.225900
      2 C2           1.3990     0.0000     0.0000 ca         1 130      -0.142000
      3 C3           2.0900     0.0000     1.1780 ca         1 130      -0.088000
      4 C4           1.4090    -0.0000     2.3880 ca         1 130      -0.069200
      5 C5           0.0020    -0.0000     2.4070 ca         1 130       0.091400
      6 C6          -0.7000     0.0060     1.2000 ca         1 130       0.038000
      7 C7          -0.7370     0.0010    -1.2840 ce         1 130       0.551800
      8 N1          -0.0450     0.0010    -2.4760 nz         1 130      -0.800600
      9 N2          -2.0390     0.0010    -1.2870 n2         1 130      -0.692100
     10 N3           1.8100     0.0000     3.7090 na         1 130      -0.248300
     11 N4          -0.3810     0.0010     3.7080 nc         1 130      -0.553100
     12 C8           0.6770    -0.0010     4.4780 cd         1 130       0.520400
     13 C1'          0.6540    -0.0020     5.9540 ca         1 130      -0.176900
     14 C2'          1.5680     0.7740     6.6700 ca         1 130      -0.098000
     15 C3'          1.5470     0.7730     8.0500 ca         1 130      -0.136000
     16 C4'          0.6220     0.0080     8.7350 ca         1 130      -0.076000
     17 C5'         -0.2980    -0.7710     8.0380 cp         1 130      -0.050000
     18 C6'         -0.2880    -0.7740     6.6410 ca         1 130       0.175100
     19 O6'         -1.1810    -1.5300     5.9540 oh         1 130      -0.490100
     20 C1B         -1.2880    -1.5910     8.7770 cp         1 130      -0.018000
     21 C2B         -2.1980    -0.9820     9.6380 ca         1 130      -0.124500
     22 C3B         -3.1170    -1.7500    10.3230 ca         1 130      -0.131500
     23 C4B         -3.1360    -3.1220    10.1560 ca         1 130      -0.121000
     24 C5B         -2.2350    -3.7330     9.3020 ca         1 130      -0.131500
     25 C6B         -1.3160    -2.9740     8.6080 ca         1 130      -0.124500
     26 HC2          1.9380    -0.0040    -0.9400 ha         1 130       0.104000
     27 HC3          3.1740     0.0000     1.1680 ha         1 130       0.149000
     28 HC6         -1.7840     0.0060     1.1990 ha         1 130       0.183000
     29 HH11         0.5290     0.8200    -2.5290 hn         1 130       0.463133
     30 HH12        -0.6920    -0.0010    -3.2390 hn         1 130       0.463133
     31 HH21        -2.5390     0.0000    -2.1540 hn         1 130       0.429400
     32 HN3          2.7540    -0.0010     4.0430 hn         1 130       0.321700
     33 HC'2         2.2970     1.3760     6.1410 ha         1 130       0.130000
     34 HC'3         2.2600     1.3760     8.6000 ha         1 130       0.147000
     35 HC'4         0.6150     0.0130     9.8180 ha         1 130       0.153000
     36 HO6         -0.7710    -2.3360     5.6890 ho         1 130       0.424000
     37 H2'         -2.2280     0.0980     9.7190 ha         1 130       0.143500
     38 H3'         -3.8250    -1.2780    10.9930 ha         1 130       0.135500
     39 H4'         -3.8600    -3.7220    10.6950 ha         1 130       0.134000
     40 H5'         -2.2540    -4.8090     9.1750 ha         1 130       0.135500
     41 H6'         -0.6170    -3.7890     8.4650 ha         1 130       0.143500
     42 H13          0.5270    -0.8180    -2.5310 hn         1 130       0.463133
@<TRIPOS>BOND
     1     1     2 ar
     2     1     6 ar
     3     1     7 1
     4     2     3 ar
     5     2    26 1
     6     3     4 ar
     7     3    27 1
     8     4     5 ar
     9     4    10 1
    10     5     6 ar
    11     5    11 1
    12     6    28 1
    13     7     8 1
    14     7     9 2
    15     8    29 1
    16     8    30 1
    17     9    31 1
    18    10    12 1
    19    10    32 1
    20    11    12 2
    21    12    13 1
    22    13    14 ar
    23    13    18 ar
    24    14    15 ar
    25    14    33 1
    26    15    16 ar
    27    15    34 1
    28    16    17 ar
    29    16    35 1
    30    17    18 ar
    31    17    20 1
    32    18    19 1
    33    19    36 1
    34    20    21 ar
    35    20    25 ar
    36    21    22 ar
    37    21    37 1
    38    22    23 ar
    39    22    38 1
    40    23    24 ar
    41    23    39 1
    42    24    25 ar
    43    24    40 1
    44    25    41 1
    45    42     8 1
@<TRIPOS>SUBSTRUCTURE
     1 130         1 TEMP              0 ****  ****    0 ROOT
