@<TRIPOS>MOLECULE
132
   44    47     1     0     0
SMALL
bcc


@<TRIPOS>ATOM
      1 C1           0.0580     0.0280    -0.1050 ca         1 132      -0.261900
      2 C2           1.5040     0.1930    -0.0790 ca         1 132       0.088400
      3 C3           2.2160     0.2730     1.0910 ca         1 132      -0.131000
      4 C4           1.5220     0.1950     2.3310 ca         1 132       0.090800
      5 C5           0.0420     0.0610     2.3330 ca         1 132      -0.063800
      6 C6          -0.6370    -0.0100     1.1610 ca         1 132      -0.047000
      7 C7          -0.6590    -0.1170    -1.3070 ce         1 132       0.483800
      8 N1          -2.1170     0.2480    -1.2800 nz         1 132      -0.841600
      9 N2          -0.1840    -0.6120    -2.4680 nv         1 132      -0.442100
     10 N3           1.9510     0.2270     3.6100 na         1 132      -0.081400
     11 C9          -0.3390     0.0100     3.7310 cc         1 132      -0.189200
     12 C8           0.8240     0.1130     4.4970 cd         1 132       0.123700
     13 C1'          0.9490     0.1360     5.9340 ca         1 132      -0.156800
     14 C2'         -0.1900     0.5070     6.6840 ca         1 132      -0.058000
     15 C3'         -0.1530     0.5360     8.0680 ca         1 132      -0.150000
     16 C4'          1.0190     0.1870     8.7490 ca         1 132      -0.023000
     17 C5'          2.1650    -0.1910     8.0470 cp         1 132      -0.088000
     18 C6'          2.1300    -0.2040     6.6340 ca         1 132       0.187100
     19 O6'          3.2290    -0.5440     5.8860 oh         1 132      -0.549100
     20 C1B          3.3760    -0.5630     8.7810 cp         1 132      -0.100000
     21 C2B          3.9270    -1.8450     8.6450 ca         1 132      -0.120000
     22 C3B          5.0580    -2.2010     9.3760 ca         1 132      -0.118500
     23 C4B          5.6490    -1.2830    10.2450 ca         1 132      -0.098000
     24 C5B          5.1020    -0.0070    10.3860 ca         1 132      -0.118500
     25 C6B          3.9670     0.3540     9.6610 ca         1 132      -0.120000
     26 Cl2          2.3910     0.3810    -1.5100 cl         1 132      -0.001400
     27 HC3          3.3140     0.4100     1.0850 ha         1 132       0.207000
     28 HC6         -1.7280    -0.1650     1.2080 ha         1 132       0.143000
     29 HH11        -2.6770    -0.5690    -0.9910 hn         1 132       0.492800
     30 HH12        -2.2500     1.0110    -0.5960 hn         1 132       0.492800
     31 HH21        -0.6350    -0.4920    -3.3520 hn         1 132       0.347200
     32 HH22         0.7450    -1.0060    -2.4780 hn         1 132       0.347200
     33 HN3          2.9000     0.2680     3.9330 hn         1 132       0.368700
     34 HC9         -1.3540    -0.1060     4.1070 ha         1 132       0.200000
     35 HC'2        -1.1150     0.7870     6.1570 ha         1 132       0.141000
     36 HC'3        -1.0470     0.8320     8.6390 ha         1 132       0.167000
     37 HC'4         1.0420     0.2060     9.8530 ha         1 132       0.173000
     38 HO6          3.9700    -0.7540     6.4850 ho         1 132       0.475000
     39 H2'          3.4490    -2.5810     7.9790 ha         1 132       0.138000
     40 H3'          5.4810    -3.2130     9.2740 ha         1 132       0.153000
     41 H4'          6.5410    -1.5680    10.8250 ha         1 132       0.155000
     42 H5'          5.5630     0.7170    11.0770 ha         1 132       0.153000
     43 H6'          3.5330     1.3580     9.7820 ha         1 132       0.138000
     44 H13         -2.4530     0.5720    -2.1980 hn         1 132       0.492800
@<TRIPOS>BOND
     1     1     2 ar  
     2     1     6 ar  
     3     1     7 1   
     4     2     3 ar  
     5     2    26 1   
     6     3     4 ar  
     7     3    27 1   
     8     4     5 ar  
     9     4    10 1   
    10     5     6 ar  
    11     5    11 1   
    12     6    28 1   
    13     7     8 1   
    14     7     9 2   
    15     8    29 1   
    16     8    30 1   
    17     8    44 1   
    18     9    31 1   
    19     9    32 1   
    20    10    12 1   
    21    10    33 1   
    22    11    12 2   
    23    11    34 1   
    24    12    13 1   
    25    13    14 ar  
    26    13    18 ar  
    27    14    15 ar  
    28    14    35 1   
    29    15    16 ar  
    30    15    36 1   
    31    16    17 ar  
    32    16    37 1   
    33    17    18 ar  
    34    17    20 1   
    35    18    19 1   
    36    19    38 1   
    37    20    21 ar  
    38    20    25 ar  
    39    21    22 ar  
    40    21    39 1   
    41    22    23 ar  
    42    22    40 1   
    43    23    24 ar  
    44    23    41 1   
    45    24    25 ar  
    46    24    42 1   
    47    25    43 1   
@<TRIPOS>SUBSTRUCTURE
     1 132         1 TEMP              0 ****  ****    0 ROOT
