@<TRIPOS>MOLECULE
132
   44    47     1     0     0
SMALL
bcc


@<TRIPOS>ATOM
      1 C1           0.0000     0.0000     0.0000 ca         1 132      -0.283900
      2 C2           1.4020     0.0000     0.0000 ca         1 132      -0.078600
      3 C3           2.1000     0.0000     1.1850 ca         1 132       0.017000
      4 C4           1.4180    -0.0120     2.3990 ca         1 132      -0.214200
      5 C5           0.0070    -0.0190     2.4060 ca         1 132      -0.120800
      6 C6          -0.6970    -0.0130     1.2040 ca         1 132       0.094000
      7 C7          -0.7380     0.0060    -1.2800 ce         1 132      -0.020200
      8 N1          -0.5110    -0.9460    -2.1840 nz         1 132       0.153400
      9 N2          -1.6300     0.9640    -1.5310 nv         1 132       0.327900
     10 N3           1.8360    -0.0210     3.7100 na         1 132       0.530600
     11 C9          -0.3950    -0.0320     3.8130 cc         1 132      -0.081200
     12 C8           0.7440    -0.0320     4.5480 cd         1 132      -0.120300
     13 C1'          0.8050    -0.0430     6.0250 ca         1 132      -0.154800
     14 C2'         -0.0940     0.7240     6.7690 ca         1 132      -0.050000
     15 C3'         -0.0370     0.7150     8.1480 ca         1 132      -0.095000
     16 C4'          0.9060    -0.0510     8.8040 ca         1 132      -0.026000
     17 C5'          1.8110    -0.8230     8.0780 cp         1 132      -0.018000
     18 C6'          1.7590    -0.8260     6.6830 ca         1 132       0.143100
     19 O6'          2.6370    -1.5750     5.9680 oh         1 132      -0.508100
     20 C1B          2.8240    -1.6440     8.7860 cp         1 132      -0.068000
     21 C2B          3.6160    -1.0730     9.7810 ca         1 132      -0.082000
     22 C3B          4.5560    -1.8420    10.4360 ca         1 132      -0.090000
     23 C4B          4.7130    -3.1760    10.1080 ca         1 132      -0.072000
     24 C5B          3.9310    -3.7480     9.1210 ca         1 132      -0.090000
     25 C6B          2.9830    -2.9910     8.4640 ca         1 132      -0.082000
     26 Cl2          2.2630     0.0150    -1.5070 cl         1 132       0.032600
     27 HC3          3.1830     0.0000     1.1740 ha         1 132       0.150000
     28 HC6         -1.7810    -0.0130     1.2070 ha         1 132       0.115000
     29 HH11        -1.3840    -1.3060    -2.5160 hn         1 132       0.249467
     30 HH12         0.0050    -0.5620    -2.9510 hn         1 132       0.249467
     31 HH21        -1.8000     1.6790    -0.8520 hn         1 132       0.153200
     32 HH22        -2.1300     0.9690    -2.3970 hn         1 132       0.153200
     33 HN3          2.7910    -0.0190     4.0090 hn         1 132       0.160700
     34 HC9         -1.4090    -0.0400     4.1940 ha         1 132       0.163000
     35 HC'2        -0.8370     1.3280     6.2620 ha         1 132       0.107000
     36 HC'3        -0.7380     1.3130     8.7190 ha         1 132       0.126000
     37 HC'4         0.9440    -0.0500     9.8860 ha         1 132       0.131000
     38 HO6          2.2050    -2.3520     5.6530 ho         1 132       0.409000
     39 H2'          3.4930    -0.0280    10.0390 ha         1 132       0.099500
     40 H3'          5.1720    -1.3990    11.2100 ha         1 132       0.113000
     41 H4'          5.4540    -3.7740    10.6240 ha         1 132       0.114000
     42 H5'          4.0570    -4.7940     8.8700 ha         1 132       0.113000
     43 H6'          2.3700    -3.4390     7.6910 ha         1 132       0.099500
     44 H13          0.0090    -1.6900    -1.7630 hn         1 132       0.249467
@<TRIPOS>BOND
     1     1     2 ar  
     2     1     6 ar  
     3     1     7 1   
     4     2     3 ar  
     5     2    26 1   
     6     3     4 ar  
     7     3    27 1   
     8     4     5 ar  
     9     4    10 1   
    10     5     6 ar  
    11     5    11 1   
    12     6    28 1   
    13     7     8 1   
    14     7     9 2   
    15     8    29 1   
    16     8    30 1   
    17     8    44 1   
    18     9    31 1   
    19     9    32 1   
    20    10    12 1   
    21    10    33 1   
    22    11    12 2   
    23    11    34 1   
    24    12    13 1   
    25    13    14 ar  
    26    13    18 ar  
    27    14    15 ar  
    28    14    35 1   
    29    15    16 ar  
    30    15    36 1   
    31    16    17 ar  
    32    16    37 1   
    33    17    18 ar  
    34    17    20 1   
    35    18    19 1   
    36    19    38 1   
    37    20    21 ar  
    38    20    25 ar  
    39    21    22 ar  
    40    21    39 1   
    41    22    23 ar  
    42    22    40 1   
    43    23    24 ar  
    44    23    41 1   
    45    24    25 ar  
    46    24    42 1   
    47    25    43 1   
@<TRIPOS>SUBSTRUCTURE
     1 132         1 TEMP              0 ****  ****    0 ROOT
