@<TRIPOS>MOLECULE
molecule
   45    47     1     0     0
SMALL
bcc


@<TRIPOS>ATOM
      1 C1           0.0000     0.0000     0.0000 ca         1 133      -0.230900
      2 C2           1.4010     0.0000     0.0000 ca         1 133       0.205900
      3 F2           2.0740    -0.0010    -1.1720 f          1 133      -0.096900
      4 C3           2.0960     0.0000     1.1900 ca         1 133      -0.155000
      5 C4           1.4080     0.0020     2.3970 ca         1 133      -0.034200
      6 C5           0.0010     0.0020     2.4080 ca         1 133       0.084400
      7 C6          -0.6980     0.0020     1.2010 ca         1 133      -0.071000
      8 C7          -0.7370    -0.0010    -1.2820 ce         1 133       0.543800
      9 N1          -2.1150     0.0010    -1.2840 nz         1 133      -0.800600
     10 N2          -0.0840     0.0000    -2.4100 n2         1 133      -0.668100
     11 N3           1.8040     0.0020     3.7180 na         1 133      -0.252300
     12 N4          -0.3880    -0.0030     3.7080 nc         1 133      -0.568100
     13 C8           0.6680     0.0030     4.4830 cd         1 133       0.535400
     14 C1'          0.6380     0.0040     5.9600 ca         1 133      -0.131900
     15 C2'          1.5490     0.7800     6.6790 ca         1 133      -0.134000
     16 C3'          1.5180     0.7800     8.0570 ca         1 133      -0.095000
     17 C4'          0.5870     0.0110     8.7350 ca         1 133      -0.183000
     18 C5'         -0.3240    -0.7630     8.0340 ca         1 133       0.092100
     19 C6'         -0.3010    -0.7760     6.6430 ca         1 133       0.132100
     20 O6'         -1.1900    -1.5330     5.9530 oh         1 133      -0.488100
     21 O5'         -1.2370    -1.5140     8.7060 os         1 133      -0.282900
     22 C10         -1.0060    -1.2950    10.0990 c3         1 133       0.113400
     23 C20         -2.0060    -2.1160    10.9160 c3         1 133      -0.077700
     24 C30         -1.7590    -1.8820    12.4080 c3         1 133      -0.088100
     25 C40         -3.4300    -1.6870    10.5610 c3         1 133      -0.088100
     26 HC3          3.1800     0.0030     1.1810 ha         1 133       0.171000
     27 HC6         -1.7640     0.0510     1.3880 ha         1 133       0.149000
     28 HH11        -2.4490    -0.0070    -2.2280 hn         1 133       0.464467
     29 HH12        -2.4520    -0.8110    -0.8050 hn         1 133       0.464467
     30 HH21        -0.5830     0.0010    -3.2770 hn         1 133       0.429400
     31 HN3          2.7460     0.0060     4.0550 hn         1 133       0.325700
     32 HC'2         2.2800     1.3840     6.1540 ha         1 133       0.134000
     33 HC'3         2.2260     1.3820     8.6120 ha         1 133       0.148000
     34 HC'4         0.5680     0.0180     9.8180 ha         1 133       0.161000
     35 HO'6        -0.9540    -2.4430     6.0300 ho         1 133       0.425000
     36 H101        -1.1320    -0.2430    10.3260 h1         1 133       0.045200
     37 H102         0.0020    -1.6010    10.3500 h1         1 133       0.045200
     38 H20         -1.8800    -3.1680    10.6900 hc         1 133       0.063700
     39 H301        -0.7420    -2.1620    12.6540 hc         1 133       0.041200
     40 H302        -1.9100    -0.8350    12.6390 hc         1 133       0.041200
     41 H303        -2.4490    -2.4830    12.9870 hc         1 133       0.041200
     42 H401        -3.6740    -2.0350     9.5650 hc         1 133       0.041200
     43 H402        -4.1250    -2.1150    11.2740 hc         1 133       0.041200
     44 H403        -3.5000    -0.6060    10.5930 hc         1 133       0.041200
     45 H13         -2.4500     0.8270    -0.8280 hn         1 133       0.464467
@<TRIPOS>BOND
     1     1     2 ar
     2     1     7 ar
     3     1     8 1
     4     2     3 1
     5     2     4 ar
     6     4     5 ar
     7     4    26 1
     8     5     6 ar
     9     5    11 1
    10     6     7 ar
    11     6    12 1
    12     7    27 1
    13     8     9 1
    14     8    10 2
    15     9    28 1
    16     9    29 1
    17    10    30 1
    18    11    13 1
    19    11    31 1
    20    12    13 2
    21    13    14 1
    22    14    15 ar
    23    14    19 ar
    24    15    16 ar
    25    15    32 1
    26    16    17 ar
    27    16    33 1
    28    17    18 ar
    29    17    34 1
    30    18    19 ar
    31    18    21 1
    32    19    20 1
    33    20    35 1
    34    21    22 1
    35    22    23 1
    36    22    36 1
    37    22    37 1
    38    23    24 1
    39    23    25 1
    40    23    38 1
    41    24    39 1
    42    24    40 1
    43    24    41 1
    44    25    42 1
    45    25    43 1
    46    25    44 1
    47    45     9 1
@<TRIPOS>SUBSTRUCTURE
     1 133         1 TEMP              0 ****  ****    0 ROOT
