@<TRIPOS>MOLECULE
133
   45    47     1     0     0
SMALL
bcc


@<TRIPOS>ATOM
      1 C1           0.0000     0.0000     0.0000 ca         1 133      -0.243900
      2 C2           1.4010     0.0000     0.0000 ca         1 133       0.115900
      3 F2           2.0740    -0.0010    -1.1720 f          1 133      -0.106900
      4 C3           2.0960     0.0000     1.1900 ca         1 133      -0.066000
      5 C4           1.4080     0.0020     2.3970 ca         1 133      -0.239200
      6 C5           0.0010     0.0020     2.4080 ca         1 133       0.059400
      7 C6          -0.6980     0.0020     1.2010 ca         1 133      -0.031000
      8 C7          -0.7370    -0.0010    -1.2820 ce         1 133       0.213800
      9 N1          -2.1150     0.0010    -1.2840 nz         1 133       0.189400
     10 N2          -0.0840     0.0000    -2.4100 n2         1 133      -0.521100
     11 N3           1.8040     0.0020     3.7180 na         1 133       0.291700
     12 N4          -0.3880    -0.0030     3.7080 nc         1 133      -0.482100
     13 C8           0.6680     0.0030     4.4830 cd         1 133       0.335400
     14 C1'          0.6380     0.0040     5.9600 ca         1 133      -0.148900
     15 C2'          1.5490     0.7800     6.6790 ca         1 133      -0.114000
     16 C3'          1.5180     0.7800     8.0570 ca         1 133      -0.062000
     17 C4'          0.5870     0.0110     8.7350 ca         1 133      -0.176000
     18 C5'         -0.3240    -0.7630     8.0340 ca         1 133       0.098100
     19 C6'         -0.3010    -0.7760     6.6430 ca         1 133       0.143100
     20 O6'         -1.1900    -1.5330     5.9530 oh         1 133      -0.468100
     21 O5'         -1.2370    -1.5140     8.7060 os         1 133      -0.265900
     22 C10         -1.0060    -1.2950    10.0990 c3         1 133       0.173400
     23 C20         -2.0060    -2.1160    10.9160 c3         1 133      -0.062700
     24 C30         -1.7590    -1.8820    12.4080 c3         1 133       0.007900
     25 C40         -3.4300    -1.6870    10.5610 c3         1 133       0.007900
     26 HC3          3.1800     0.0040     1.1900 ha         1 133       0.136000
     27 HC6         -1.7640     0.0480     1.3890 ha         1 133       0.121000
     28 HH11        -2.4480     0.8190    -0.8140 hn         1 133       0.219800
     29 HH12        -2.4480     0.0000    -2.2280 hn         1 133       0.219800
     30 HH21         0.9170     0.0000    -2.4080 hn         1 133       0.408400
     31 HN3          2.7460     0.0060     4.0550 hn         1 133       0.147700
     32 HC'2         2.2800     1.3840     6.1540 ha         1 133       0.102000
     33 HC'3         2.2260     1.3820     8.6120 ha         1 133       0.114000
     34 HC'4         0.5680     0.0180     9.8180 ha         1 133       0.145000
     35 HO'6        -0.9530    -2.4430     6.0290 ho         1 133       0.404000
     36 H101         0.0020    -1.6000    10.3510 h1         1 133       0.015200
     37 H102        -1.1330    -0.2430    10.3250 h1         1 133       0.015200
     38 H20         -1.8800    -3.1680    10.6900 hc         1 133       0.034700
     39 H301        -0.7410    -2.1580    12.6530 hc         1 133       0.008033
     40 H302        -2.4460    -2.4870    12.9870 hc         1 133       0.008033
     41 H303        -1.9150    -0.8360    12.6400 hc         1 133       0.008033
     42 H401        -3.5010    -0.6060    10.5970 hc         1 133       0.008033
     43 H402        -4.1250    -2.1180    11.2720 hc         1 133       0.008033
     44 H403        -3.6730    -2.0320     9.5640 hc         1 133       0.008033
     45 H13         -2.4500    -0.8170    -0.8150 hn         1 133       0.219800
@<TRIPOS>BOND
     1     1     2 ar  
     2     1     7 ar  
     3     1     8 1   
     4     2     3 1   
     5     2     4 ar  
     6     4     5 ar  
     7     4    26 1   
     8     5     6 ar  
     9     5    11 1   
    10     6     7 ar  
    11     6    12 1   
    12     7    27 1   
    13     8     9 1   
    14     8    10 2   
    15     9    28 1   
    16     9    29 1   
    17     9    45 1   
    18    10    30 1   
    19    11    13 1   
    20    11    31 1   
    21    12    13 2   
    22    13    14 1   
    23    14    15 ar  
    24    14    19 ar  
    25    15    16 ar  
    26    15    32 1   
    27    16    17 ar  
    28    16    33 1   
    29    17    18 ar  
    30    17    34 1   
    31    18    19 ar  
    32    18    21 1   
    33    19    20 1   
    34    20    35 1   
    35    21    22 1   
    36    22    23 1   
    37    22    36 1   
    38    22    37 1   
    39    23    24 1   
    40    23    25 1   
    41    23    38 1   
    42    24    39 1   
    43    24    40 1   
    44    24    41 1   
    45    25    42 1   
    46    25    43 1   
    47    25    44 1   
@<TRIPOS>SUBSTRUCTURE
     1 133         1 TEMP              0 ****  ****    0 ROOT
