@<TRIPOS>MOLECULE
133
   45    47     1     0     0
SMALL
bcc


@<TRIPOS>ATOM
      1 C1          -0.2090     0.2480     0.0210 ca         1 133      -0.285900
      2 C2           1.1110    -0.2830    -0.0910 ca         1 133       0.131900
      3 F2           1.6520    -0.4560    -1.3270 f          1 133      -0.154900
      4 C3           1.8640    -0.6300     1.0310 ca         1 133      -0.139000
      5 C4           1.2670    -0.4410     2.2830 ca         1 133      -0.021200
      6 C5          -0.0850     0.0990     2.4120 ca         1 133       0.059400
      7 C6          -0.8030     0.4510     1.2680 ca         1 133       0.022000
      8 C7          -0.9510     0.6790    -1.1830 ce         1 133       0.647800
      9 N1          -1.0650    -0.4800    -2.1830 nz         1 133      -0.895600
     10 N2          -1.4300     1.8370    -1.3590 n2         1 133      -0.679100
     11 N3           1.7000    -0.6880     3.5750 na         1 133      -0.243300
     12 N4          -0.4270     0.1830     3.7700 nc         1 133      -0.554100
     13 C8           0.6540    -0.2790     4.4480 cd         1 133       0.535400
     14 C1'          0.7540    -0.3930     5.9040 ca         1 133      -0.158900
     15 C2'         -0.4320    -0.5230     6.6500 ca         1 133      -0.075000
     16 C3'         -0.3970    -0.6220     8.0350 ca         1 133      -0.134000
     17 C4'          0.8190    -0.5970     8.7220 ca         1 133      -0.121000
     18 C5'          2.0040    -0.4690     8.0010 ca         1 133       0.048100
     19 C6'          1.9830    -0.3600     6.5870 ca         1 133       0.138100
     20 O6'          3.1510    -0.2400     5.8740 oh         1 133      -0.527100
     21 O5'          3.2720    -0.4820     8.5510 os         1 133      -0.349900
     22 C10          3.3510    -0.0340     9.9170 c3         1 133       0.134400
     23 C20          4.8200     0.2520    10.2140 c3         1 133      -0.069700
     24 C30          5.6550    -1.0020    10.0830 c3         1 133      -0.090100
     25 C40          5.3510     1.3550     9.3250 c3         1 133      -0.090100
     26 HC3          2.8840    -1.0260     0.9220 ha         1 133       0.178000
     27 HC6         -1.8110     0.8880     1.3570 ha         1 133       0.175000
     28 HH11        -1.4510    -1.2930    -1.6950 hn         1 133       0.459467
     29 HH12        -0.1180    -0.7150    -2.5110 hn         1 133       0.459467
     30 HH21        -1.9540     2.1090    -2.1620 hn         1 133       0.459400
     31 HN3          2.6120    -0.9560     3.8610 hn         1 133       0.342700
     32 HC'2        -1.4040    -0.5440     6.1290 ha         1 133       0.162000
     33 HC'3        -1.3360    -0.7230     8.6000 ha         1 133       0.153000
     34 HC'4         0.8390    -0.6800     9.8190 ha         1 133       0.156000
     35 HO'6         3.8810    -0.0940     6.5010 ho         1 133       0.463000
     36 H101         2.9670    -0.8560    10.5760 h1         1 133       0.047700
     37 H102         2.7300     0.8890    10.0490 h1         1 133       0.047700
     38 H20          4.8580     0.6020    11.2860 hc         1 133       0.063700
     39 H301         6.7230    -0.7820    10.3260 hc         1 133       0.040533
     40 H302         5.6000    -1.3980     9.0400 hc         1 133       0.040533
     41 H303         5.2860    -1.7920    10.7810 hc         1 133       0.040533
     42 H401         4.7610     2.2910     9.4680 hc         1 133       0.040533
     43 H402         6.4200     1.5650     9.5690 hc         1 133       0.040533
     44 H403         5.2830     1.0520     8.2520 hc         1 133       0.040533
     45 H13         -1.6530    -0.2580    -2.9870 hn         1 133       0.459467
@<TRIPOS>BOND
     1     1     2 ar  
     2     1     7 ar  
     3     1     8 1   
     4     2     3 1   
     5     2     4 ar  
     6     4     5 ar  
     7     4    26 1   
     8     5     6 ar  
     9     5    11 1   
    10     6     7 ar  
    11     6    12 1   
    12     7    27 1   
    13     8     9 1   
    14     8    10 2   
    15     9    28 1   
    16     9    29 1   
    17     9    45 1   
    18    10    30 1   
    19    11    13 1   
    20    11    31 1   
    21    12    13 2   
    22    13    14 1   
    23    14    15 ar  
    24    14    19 ar  
    25    15    16 ar  
    26    15    32 1   
    27    16    17 ar  
    28    16    33 1   
    29    17    18 ar  
    30    17    34 1   
    31    18    19 ar  
    32    18    21 1   
    33    19    20 1   
    34    20    35 1   
    35    21    22 1   
    36    22    23 1   
    37    22    36 1   
    38    22    37 1   
    39    23    24 1   
    40    23    25 1   
    41    23    38 1   
    42    24    39 1   
    43    24    40 1   
    44    24    41 1   
    45    25    42 1   
    46    25    43 1   
    47    25    44 1   
@<TRIPOS>SUBSTRUCTURE
     1 133         1 TEMP              0 ****  ****    0 ROOT
