@<TRIPOS>MOLECULE
molecule
   53    56     1     0     0
SMALL
bcc


@<TRIPOS>ATOM
      1 C1           0.0000     0.0000     0.0000 ca         1 134      -0.262900
      2 C2           1.4020     0.0000     0.0000 ca         1 134       0.214900
      3 F2           2.0730    -0.0010    -1.1730 f          1 134      -0.098900
      4 C3           2.1010     0.0000     1.1870 ca         1 134      -0.171000
      5 C4           1.4180     0.0000     2.3990 ca         1 134       0.026800
      6 C5           0.0090     0.0000     2.4060 ca         1 134      -0.108800
      7 C6          -0.6960    -0.0010     1.2020 ca         1 134      -0.054000
      8 C7          -0.7380     0.0000    -1.2820 ce         1 134       0.544800
      9 N1          -2.1170    -0.0000    -1.2820 nz         1 134      -0.800600
     10 N2          -0.0860     0.0010    -2.4100 n2         1 134      -0.672100
     11 N3           1.8350    -0.0000     3.7110 na         1 134      -0.144400
     12 CN4         -0.3960    -0.0050     3.8120 cc         1 134      -0.196200
     13 C8           0.7430    -0.0000     4.5490 cd         1 134       0.062700
     14 C1'          0.8020    -0.0010     6.0260 ca         1 134      -0.060800
     15 C2'         -0.0930     0.7740     6.7640 ca         1 134      -0.125000
     16 C3'         -0.0360     0.7700     8.1420 ca         1 134      -0.096000
     17 C4'          0.9060     0.0010     8.8000 ca         1 134      -0.194000
     18 C5'          1.8020    -0.7750     8.0790 ca         1 134       0.102100
     19 C6'          1.7590    -0.7760     6.6910 ca         1 134       0.088100
     20 O6'          2.6360    -1.5330     5.9810 oh         1 134      -0.520100
     21 O5'          2.7270    -1.5290     8.7310 os         1 134      -0.282900
     22 C1B          3.9420    -1.5400    10.8200 c3         1 134      -0.067700
     23 C2B          3.8360    -1.1850    12.3040 c3         1 134      -0.075400
     24 C3B          2.6960    -1.9840    12.9390 c3         1 134      -0.084400
     25 C4B          1.3800    -1.6430    12.2370 c3         1 134      -0.078400
     26 C5B          1.4880    -1.9980    10.7530 c3         1 134      -0.116400
     27 C6B          2.6270    -1.1970    10.1180 c3         1 134       0.116100
     28 CM           5.0820    -0.7400    10.1860 c3         1 134      -0.089100
     29 HC3          3.1840    -0.0000     1.1760 ha         1 134       0.172000
     30 HC6         -1.7790    -0.0010     1.2050 ha         1 134       0.109000
     31 HH11        -2.4510    -0.8170    -0.8110 hn         1 134       0.462133
     32 HH12        -2.4510    -0.0000    -2.2260 hn         1 134       0.462133
     33 HH21        -0.5860     0.0020    -3.2770 hn         1 134       0.427400
     34 HN3          2.7900     0.0030     4.0110 hn         1 134       0.334700
     35 HN4         -1.4100    -0.0060     4.1920 ha         1 134       0.170000
     36 HC'2        -0.8340     1.3790     6.2540 ha         1 134       0.141000
     37 HC'3        -0.7320     1.3730     8.7130 ha         1 134       0.146000
     38 HC'4         0.9430     0.0010     9.8830 ha         1 134       0.169000
     39 HO'6         2.4030    -2.4430     6.0620 ho         1 134       0.434000
     40 H1'          4.1390    -2.6000    10.7170 hc         1 134       0.066700
     41 H2'1         3.6340    -0.1260    12.4080 hc         1 134       0.050700
     42 H2'2         4.7670    -1.4300    12.8010 hc         1 134       0.050700
     43 H3'1         2.8960    -3.0440    12.8320 hc         1 134       0.049700
     44 H3'2         2.6190    -1.7300    13.9890 hc         1 134       0.049700
     45 H4'1         0.5750    -2.2120    12.6850 hc         1 134       0.046200
     46 H4'2         1.1810    -0.5830    12.3400 hc         1 134       0.046200
     47 H5'1         0.5560    -1.7550    10.2560 hc         1 134       0.055700
     48 H5'2         1.6910    -3.0570    10.6500 hc         1 134       0.055700
     49 H6'          2.4260    -0.1390    10.2270 h1         1 134       0.062700
     50 HM1          4.7980     0.3040    10.1220 hc         1 134       0.040700
     51 HM2          5.9730    -0.8350    10.7940 hc         1 134       0.040700
     52 HM3          5.2810    -1.1210     9.1910 hc         1 134       0.040700
     53 H13         -2.4510     0.8150    -0.8070 hn         1 134       0.462133
@<TRIPOS>BOND
     1     1     2 ar
     2     1     7 ar
     3     1     8 1
     4     2     3 1
     5     2     4 ar
     6     4     5 ar
     7     4    29 1
     8     5     6 ar
     9     5    11 1
    10     6     7 ar
    11     6    12 1
    12     7    30 1
    13     8     9 1
    14     8    10 2
    15     9    31 1
    16     9    32 1
    17    10    33 1
    18    11    13 1
    19    11    34 1
    20    12    13 2
    21    12    35 1
    22    13    14 1
    23    14    15 ar
    24    14    19 ar
    25    15    16 ar
    26    15    36 1
    27    16    17 ar
    28    16    37 1
    29    17    18 ar
    30    17    38 1
    31    18    19 ar
    32    18    21 1
    33    19    20 1
    34    20    39 1
    35    21    27 1
    36    22    23 1
    37    22    27 1
    38    22    28 1
    39    22    40 1
    40    23    24 1
    41    23    41 1
    42    23    42 1
    43    24    25 1
    44    24    43 1
    45    24    44 1
    46    25    26 1
    47    25    45 1
    48    25    46 1
    49    26    27 1
    50    26    47 1
    51    26    48 1
    52    27    49 1
    53    28    50 1
    54    28    51 1
    55    28    52 1
    56    53     9 1
@<TRIPOS>SUBSTRUCTURE
     1 134         1 TEMP              0 ****  ****    0 ROOT
