@<TRIPOS>MOLECULE
134
   53    56     1     0     0
SMALL
bcc


@<TRIPOS>ATOM
      1 C1          -0.4490    -0.4640     0.4220 ca         1 134      -0.296900
      2 C2           0.9110    -0.1280     0.1450 ca         1 134       0.130900
      3 F2           1.3450    -0.1270    -1.1450 f          1 134      -0.157900
      4 C3           1.8100     0.1940     1.1600 ca         1 134      -0.148000
      5 C4           1.3280     0.1820     2.4800 ca         1 134       0.004800
      6 C5          -0.0560    -0.1640     2.7730 ca         1 134      -0.109800
      7 C6          -0.9190    -0.4920     1.7370 ca         1 134       0.018000
      8 C7          -1.3650    -0.8710    -0.6600 ce         1 134       0.651800
      9 N1          -1.3990     0.1970    -1.7640 nz         1 134      -0.896600
     10 N2          -2.0390    -1.9440    -0.6750 n2         1 134      -0.687100
     11 N3           1.9630     0.4700     3.6740 na         1 134      -0.143400
     12 CN4         -0.2000    -0.0860     4.2030 cc         1 134      -0.176200
     13 C8           1.0450     0.2920     4.7290 cd         1 134       0.062700
     14 C1'          1.3770     0.5110     6.1250 ca         1 134      -0.097800
     15 C2'          0.3390     0.8500     7.0130 ca         1 134      -0.079000
     16 C3'          0.5860     1.0700     8.3620 ca         1 134      -0.149000
     17 C4'          1.8790     0.9520     8.8760 ca         1 134      -0.084000
     18 C5'          2.9240     0.5990     8.0220 ca         1 134       0.027100
     19 C6'          2.6820     0.3930     6.6420 ca         1 134       0.140100
     20 O6'          3.7150     0.0940     5.7880 oh         1 134      -0.528100
     21 O5'          4.2460     0.5890     8.4350 os         1 134      -0.352900
     22 C1B          4.7320    -1.8190     8.3440 c3         1 134      -0.095700
     23 C2B          4.5360    -3.0600     9.2040 c3         1 134      -0.070400
     24 C3B          5.1710    -2.9120    10.5700 c3         1 134      -0.081400
     25 C4B          4.5440    -1.7840    11.3670 c3         1 134      -0.075400
     26 C5B          3.8980    -0.7400    10.4780 c3         1 134      -0.103400
     27 C6B          4.6950    -0.5470     9.2000 c3         1 134       0.144100
     28 CM           6.0330    -1.8950     7.5720 c3         1 134      -0.094100
     29 HC3          2.8560     0.4390     0.9250 ha         1 134       0.175000
     30 HC6         -1.9610    -0.7780     1.9570 ha         1 134       0.161000
     31 HH11        -0.4680     0.2340    -2.2020 hn         1 134       0.458467
     32 HH12        -1.5890     1.1050    -1.3290 hn         1 134       0.458467
     33 HH21        -2.6790    -2.1880    -1.3980 hn         1 134       0.456400
     34 HN3          2.9320     0.6460     3.7980 hn         1 134       0.335700
     35 HN4         -1.1040    -0.2990     4.7660 ha         1 134       0.175000
     36 HC'2        -0.6860     0.9530     6.6230 ha         1 134       0.143000
     37 HC'3        -0.2410     1.3470     9.0330 ha         1 134       0.151000
     38 HC'4         2.0810     1.1450     9.9410 ha         1 134       0.160000
     39 HO'6         4.5340     0.0350     6.3140 ho         1 134       0.460000
     40 H1'          3.8820    -1.7680     7.6030 hc         1 134       0.050700
     41 H2'1         4.9750    -3.9480     8.6790 hc         1 134       0.047700
     42 H2'2         3.4380    -3.2540     9.3280 hc         1 134       0.047700
     43 H3'1         6.2700    -2.7180    10.4440 hc         1 134       0.047700
     44 H3'2         5.0690    -3.8750    11.1350 hc         1 134       0.047700
     45 H4'1         5.3300    -1.3020    12.0060 hc         1 134       0.049200
     46 H4'2         3.7640    -2.1950    12.0610 hc         1 134       0.049200
     47 H5'1         3.8320     0.2360    11.0250 hc         1 134       0.051700
     48 H5'2         2.8530    -1.0560    10.2180 hc         1 134       0.051700
     49 H6'          5.7480    -0.2220     9.4570 h1         1 134       0.089700
     50 HM1          6.2270    -0.9360     7.0330 hc         1 134       0.039700
     51 HM2          5.9920    -2.7240     6.8240 hc         1 134       0.039700
     52 HM3          6.8890    -2.0860     8.2630 hc         1 134       0.039700
     53 H13         -2.1010     0.0110    -2.4800 hn         1 134       0.458467
@<TRIPOS>BOND
     1     1     2 ar  
     2     1     7 ar  
     3     1     8 1   
     4     2     3 1   
     5     2     4 ar  
     6     4     5 ar  
     7     4    29 1   
     8     5     6 ar  
     9     5    11 1   
    10     6     7 ar  
    11     6    12 1   
    12     7    30 1   
    13     8     9 1   
    14     8    10 2   
    15     9    31 1   
    16     9    32 1   
    17     9    53 1   
    18    10    33 1   
    19    11    13 1   
    20    11    34 1   
    21    12    13 2   
    22    12    35 1   
    23    13    14 1   
    24    14    15 ar  
    25    14    19 ar  
    26    15    16 ar  
    27    15    36 1   
    28    16    17 ar  
    29    16    37 1   
    30    17    18 ar  
    31    17    38 1   
    32    18    19 ar  
    33    18    21 1   
    34    19    20 1   
    35    20    39 1   
    36    21    27 1   
    37    22    23 1   
    38    22    27 1   
    39    22    28 1   
    40    22    40 1   
    41    23    24 1   
    42    23    41 1   
    43    23    42 1   
    44    24    25 1   
    45    24    43 1   
    46    24    44 1   
    47    25    26 1   
    48    25    45 1   
    49    25    46 1   
    50    26    27 1   
    51    26    47 1   
    52    26    48 1   
    53    27    49 1   
    54    28    50 1   
    55    28    51 1   
    56    28    52 1   
@<TRIPOS>SUBSTRUCTURE
     1 134         1 TEMP              0 ****  ****    0 ROOT
