@<TRIPOS>MOLECULE
molecule
   33    34     1     0     0
SMALL
bcc


@<TRIPOS>ATOM
      1 C1           0.0000     0.0000     0.0000 ca         1 135      -0.232900
      2 C2           1.3960     0.0000     0.0000 ca         1 135      -0.060500
      3 C3           2.0830     0.0000     1.1930 ca         1 135      -0.145500
      4 C4           1.3880    -0.0010     2.3980 ca         1 135       0.137600
      5 C5          -0.0020    -0.0020     2.4010 ca         1 135      -0.145500
      6 C6          -0.6950     0.0040     1.2100 ca         1 135      -0.060500
      7 C7          -0.7410     0.0010    -1.2790 ce         1 135       0.549800
      8 N1          -2.1190    -0.0000    -1.2790 nz         1 135      -0.801600
      9 N2          -0.0910     0.0010    -2.4090 n2         1 135      -0.692100
     10 N3           2.0870    -0.0010     3.6040 ns         1 135      -0.481100
     11 C8           3.2650     0.6440     3.7010 c          1 135       0.682700
     12 O8           3.6720     1.3090     2.7690 o          1 135      -0.557100
     13 C9           4.0640     0.5440     4.9370 ca         1 135      -0.192600
     14 C10          3.6010    -0.2200     6.0120 ca         1 135      -0.083000
     15 C11          4.3500    -0.3110     7.1640 ca         1 135      -0.152000
     16 C12          5.5620     0.3530     7.2630 ca         1 135      -0.061000
     17 C13          6.0310     1.1110     6.2100 ca         1 135      -0.196000
     18 C14          5.2920     1.2080     5.0400 ca         1 135       0.192100
     19 O14          5.7530     1.9520     4.0040 oh         1 135      -0.482100
     20 H2           1.9380    -0.0010    -0.9380 ha         1 135       0.138000
     21 H3           3.1660     0.0000     1.1930 ha         1 135       0.175000
     22 H5          -0.5410    -0.0000     3.3410 ha         1 135       0.175000
     23 H6          -1.7780     0.0030     1.2140 ha         1 135       0.138000
     24 HH11        -2.4530     0.8180    -0.8090 hn         1 135       0.463133
     25 HH12        -2.4520    -0.0020    -2.2220 hn         1 135       0.463133
     26 HH21        -0.5910     0.0020    -3.2760 hn         1 135       0.429400
     27 HN3          1.7120    -0.4800     4.3990 hn         1 135       0.338500
     28 H10          2.6530    -0.7400     5.9380 ha         1 135       0.122000
     29 H11          3.9900    -0.9030     7.9970 ha         1 135       0.144000
     30 H12          6.1440     0.2780     8.1740 ha         1 135       0.147000
     31 H13          6.9810     1.6250     6.2940 ha         1 135       0.152000
     32 H14          5.9850     2.8130     4.3130 ho         1 135       0.432000
     33 H131        -2.4520    -0.8120    -0.7980 hn         1 135       0.463133
@<TRIPOS>BOND
     1     1     2 ar  
     2     1     6 ar  
     3     1     7 1   
     4     2     3 ar  
     5     2    20 1   
     6     3     4 ar  
     7     3    21 1   
     8     4     5 ar  
     9     4    10 1   
    10     5     6 ar  
    11     5    22 1   
    12     6    23 1   
    13     7     8 1   
    14     7     9 2   
    15     8    24 1   
    16     8    25 1   
    17     9    26 1   
    18    10    11 1   
    19    10    27 1   
    20    11    12 2   
    21    11    13 1   
    22    13    14 ar  
    23    13    18 ar  
    24    14    15 ar  
    25    14    28 1   
    26    15    16 ar  
    27    15    29 1   
    28    16    17 ar  
    29    16    30 1   
    30    17    18 ar  
    31    17    31 1   
    32    18    19 1   
    33    19    32 1   
    34    33     8 1   
@<TRIPOS>SUBSTRUCTURE
     1 135         1 TEMP              0 ****  ****    0 ROOT
