@<TRIPOS>MOLECULE
135
   33    34     1     0     0
SMALL
bcc


@<TRIPOS>ATOM
      1 C1          -0.0310     0.1800    -0.1170 ca         1 135      -0.288900
      2 C2           1.3320    -0.1270    -0.2340 ca         1 135      -0.047000
      3 C3           2.1310    -0.1870     0.8950 ca         1 135      -0.184500
      4 C4           1.5950     0.0730     2.1890 ca         1 135       0.161600
      5 C5           0.2160     0.4120     2.2800 ca         1 135      -0.184500
      6 C6          -0.5720     0.4670     1.1450 ca         1 135      -0.047000
      7 C7          -0.8620     0.2570    -1.3290 ce         1 135       0.654800
      8 N1          -2.0480    -0.7230    -1.1980 nz         1 135      -0.897600
      9 N2          -0.6450     0.9910    -2.3350 n2         1 135      -0.687100
     10 N3           2.4400     0.0140     3.2840 ns         1 135      -0.455100
     11 C8           2.0740     0.0460     4.6400 c          1 135       0.705700
     12 O8           0.8850     0.1590     4.9860 o          1 135      -0.573100
     13 C9           3.1710    -0.0060     5.6410 ca         1 135      -0.192600
     14 C10          2.9870     0.7510     6.8110 ca         1 135      -0.040000
     15 C11          3.9440     0.7510     7.8180 ca         1 135      -0.163000
     16 C12          5.1030    -0.0180     7.6830 ca         1 135      -0.050000
     17 C13          5.3030    -0.7860     6.5420 ca         1 135      -0.214000
     18 C14          4.3400    -0.7790     5.5190 ca         1 135       0.160100
     19 O14          4.5120    -1.5300     4.3780 oh         1 135      -0.525100
     20 H2           1.7760    -0.3170    -1.2250 ha         1 135       0.141000
     21 H3           3.2000    -0.4330     0.7770 ha         1 135       0.179000
     22 H5          -0.2380     0.6450     3.2600 ha         1 135       0.179000
     23 H6          -1.6250     0.7740     1.2500 ha         1 135       0.141000
     24 HH11        -2.5190    -0.5460    -0.3050 hn         1 135       0.453800
     25 HH12        -2.7250    -0.6390    -1.9570 hn         1 135       0.453800
     26 HH21        -1.2070     1.0000    -3.1570 hn         1 135       0.458400
     27 HN3          3.4020    -0.1820     3.0870 hn         1 135       0.347500
     28 H10          2.0600     1.3390     6.9210 ha         1 135       0.162000
     29 H11          3.7860     1.3540     8.7260 ha         1 135       0.155000
     30 H12          5.8600    -0.0200     8.4840 ha         1 135       0.152000
     31 H13          6.2090    -1.4010     6.4360 ha         1 135       0.149000
     32 H14          5.3090    -2.0720     4.4870 ho         1 135       0.443000
     33 H131        -1.6750    -1.6770    -1.1810 hn         1 135       0.453800
@<TRIPOS>BOND
     1     1     2 ar  
     2     1     6 ar  
     3     1     7 1   
     4     2     3 ar  
     5     2    20 1   
     6     3     4 ar  
     7     3    21 1   
     8     4     5 ar  
     9     4    10 1   
    10     5     6 ar  
    11     5    22 1   
    12     6    23 1   
    13     7     8 1   
    14     7     9 2   
    15     8    24 1   
    16     8    25 1   
    17     8    33 1   
    18     9    26 1   
    19    10    11 1   
    20    10    27 1   
    21    11    12 2   
    22    11    13 1   
    23    13    14 ar  
    24    13    18 ar  
    25    14    15 ar  
    26    14    28 1   
    27    15    16 ar  
    28    15    29 1   
    29    16    17 ar  
    30    16    30 1   
    31    17    18 ar  
    32    17    31 1   
    33    18    19 1   
    34    19    32 1   
@<TRIPOS>SUBSTRUCTURE
     1 135         1 TEMP              0 ****  ****    0 ROOT
