@<TRIPOS>MOLECULE
136
   36    37     1     0     0
SMALL
bcc


@<TRIPOS>ATOM
      1 C1          -0.2910    -0.1140     0.0540 ca         1 136      -0.280900
      2 C2           1.1020     0.0660     0.0190 ca         1 136       0.074400
      3 Cl2          1.9310     0.1680    -1.4730 cl         1 136      -0.087400
      4 C3           1.8410     0.1540     1.1880 ca         1 136      -0.188000
      5 C4           1.1980     0.0670     2.4600 ca         1 136       0.167600
      6 C5          -0.2080    -0.1210     2.4810 ca         1 136      -0.175000
      7 C6          -0.9260    -0.2180     1.3000 ca         1 136      -0.018000
      8 C7          -1.1000    -0.2810    -1.1690 ce         1 136       0.645800
      9 N1          -0.9370     0.9380    -2.0850 nz         1 136      -0.901600
     10 N2          -1.8340    -1.2840    -1.4170 n2         1 136      -0.678100
     11 N3           1.9790     0.1860     3.5970 ns         1 136      -0.452100
     12 C8           1.5590     0.0680     4.9340 c          1 136       0.706700
     13 O8           0.3590    -0.0600     5.2260 o          1 136      -0.562100
     14 C9           2.6060     0.1790     5.9840 ca         1 136      -0.193600
     15 C10          2.2390     0.8600     7.1530 ca         1 136      -0.028000
     16 C11          3.1340     0.9970     8.2150 ca         1 136      -0.107300
     17 C21          2.7400     1.7120     9.4500 c3         1 136      -0.058800
     18 C12          4.4110     0.4310     8.1070 ca         1 136      -0.029000
     19 C13          4.7980    -0.2630     6.9630 ca         1 136      -0.066100
     20 I13          6.6590    -1.0550     6.9220 i          1 136      -0.104900
     21 C14          3.8920    -0.3910     5.8940 ca         1 136       0.190100
     22 O14          4.1970    -1.0570     4.7320 oh         1 136      -0.520100
     23 H3           2.9360     0.2830     1.1280 ha         1 136       0.172000
     24 H5          -0.7500    -0.2080     3.4410 ha         1 136       0.205000
     25 H6          -2.0150    -0.3900     1.3470 ha         1 136       0.162000
     26 HH11        -1.2390     1.7720    -1.5750 hn         1 136       0.457467
     27 HH12        -1.4700     0.8620    -2.9520 hn         1 136       0.457467
     28 HH21        -2.3990    -1.3700    -2.2330 hn         1 136       0.457400
     29 HN3          2.9690     0.2280     3.4480 hn         1 136       0.346500
     30 H10          1.2200     1.2790     7.2280 ha         1 136       0.164000
     31 H211         1.8350     2.3460     9.2800 hc         1 136       0.057033
     32 H212         2.5050     0.9750    10.2600 hc         1 136       0.057033
     33 H213         3.5710     2.3700     9.8070 hc         1 136       0.057033
     34 H12          5.1130     0.5410     8.9520 ha         1 136       0.162000
     35 H14          5.0550    -1.5030     4.8410 ho         1 136       0.452000
     36 H13          0.0710     1.0290    -2.3060 hn         1 136       0.457467
@<TRIPOS>BOND
     1     1     2 ar  
     2     1     7 ar  
     3     1     8 1   
     4     2     3 1   
     5     2     4 ar  
     6     4     5 ar  
     7     4    23 1   
     8     5     6 ar  
     9     5    11 1   
    10     6     7 ar  
    11     6    24 1   
    12     7    25 1   
    13     8     9 1   
    14     8    10 2   
    15     9    26 1   
    16     9    27 1   
    17     9    36 1   
    18    10    28 1   
    19    11    12 1   
    20    11    29 1   
    21    12    13 2   
    22    12    14 1   
    23    14    15 ar  
    24    14    21 ar  
    25    15    16 ar  
    26    15    30 1   
    27    16    17 1   
    28    16    18 ar  
    29    17    31 1   
    30    17    32 1   
    31    17    33 1   
    32    18    19 ar  
    33    18    34 1   
    34    19    20 1   
    35    19    21 ar  
    36    21    22 1   
    37    22    35 1   
@<TRIPOS>SUBSTRUCTURE
     1 136         1 TEMP              0 ****  ****    0 ROOT
