@<TRIPOS>MOLECULE
136
   36    37     1     0     0
SMALL
bcc


@<TRIPOS>ATOM
      1 C1           0.0000     0.0000     0.0000 ca         1 136      -0.245900
      2 C2           1.3960     0.0000     0.0000 ca         1 136      -0.006600
      3 Cl2          2.2650     0.0070    -1.5030 cl         1 136       0.099600
      4 C3           2.0840     0.0000     1.1950 ca         1 136      -0.087000
      5 C4           1.3900    -0.0110     2.3980 ca         1 136      -0.001400
      6 C5          -0.0010    -0.0110     2.4010 ca         1 136      -0.116000
      7 C6          -0.6940    -0.0060     1.2110 ca         1 136      -0.061000
      8 C7          -0.7410     0.0060    -1.2790 ce         1 136       0.224800
      9 N1          -2.1190     0.0050    -1.2770 nz         1 136       0.182400
     10 N2          -0.0920     0.0110    -2.4080 n2         1 136      -0.607100
     11 N3           2.0890    -0.0160     3.6060 ns         1 136      -0.049100
     12 C8           3.2690    -0.6610     3.6990 c          1 136       0.604700
     13 O8           3.6760    -1.3200     2.7630 o          1 136      -0.598100
     14 C9           4.0650    -0.5660     4.9360 ca         1 136      -0.217600
     15 C10          3.5980     0.1880     6.0170 ca         1 136      -0.057000
     16 C11          4.3490     0.2770     7.1670 ca         1 136      -0.112300
     17 C21          3.8460     1.0950     8.3300 c3         1 136       0.067200
     18 C12          5.5620    -0.3850     7.2650 ca         1 136      -0.011000
     19 C13          6.0330    -1.1370     6.2060 ca         1 136       0.088900
     20 I13          7.8690    -2.1320     6.3670 i          1 136      -0.212900
     21 C14          5.2930    -1.2340     5.0370 ca         1 136       0.232100
     22 O14          5.7540    -1.9710     3.9980 oh         1 136      -0.457100
     23 H3           3.1680     0.0000     1.1960 ha         1 136       0.174000
     24 H5          -0.5400    -0.0180     3.3410 ha         1 136       0.127000
     25 H6          -1.7770    -0.0070     1.2150 ha         1 136       0.086000
     26 HH11        -2.4530     0.8200    -0.8000 hn         1 136       0.219133
     27 HH12        -2.4540     0.0100    -2.2200 hn         1 136       0.219133
     28 HH21         0.9090     0.0110    -2.4120 hn         1 136       0.422400
     29 HN3          1.7120     0.4550     4.4040 hn         1 136       0.190500
     30 H10          2.6210     0.6540     5.9700 ha         1 136       0.099000
     31 H211         3.4270     2.0240     7.9630 hc         1 136       0.013700
     32 H212         3.0820     0.5380     8.8590 hc         1 136       0.013700
     33 H213         4.6680     1.3100     9.0020 hc         1 136       0.013700
     34 H12          6.1460    -0.3090     8.1740 ha         1 136       0.128000
     35 H14          5.9170    -2.8540     4.2860 ho         1 136       0.417000
     36 H13         -2.4520    -0.8190    -0.8170 hn         1 136       0.219133
@<TRIPOS>BOND
     1     1     2 ar  
     2     1     7 ar  
     3     1     8 1   
     4     2     3 1   
     5     2     4 ar  
     6     4     5 ar  
     7     4    23 1   
     8     5     6 ar  
     9     5    11 1   
    10     6     7 ar  
    11     6    24 1   
    12     7    25 1   
    13     8     9 1   
    14     8    10 2   
    15     9    26 1   
    16     9    27 1   
    17     9    36 1   
    18    10    28 1   
    19    11    12 1   
    20    11    29 1   
    21    12    13 2   
    22    12    14 1   
    23    14    15 ar  
    24    14    21 ar  
    25    15    16 ar  
    26    15    30 1   
    27    16    17 1   
    28    16    18 ar  
    29    17    31 1   
    30    17    32 1   
    31    17    33 1   
    32    18    19 ar  
    33    18    34 1   
    34    19    20 1   
    35    19    21 ar  
    36    21    22 1   
    37    22    35 1   
@<TRIPOS>SUBSTRUCTURE
     1 136         1 TEMP              0 ****  ****    0 ROOT
