@<TRIPOS>MOLECULE
137
   38    38     1     0     0
SMALL
bcc


@<TRIPOS>ATOM
      1 P            0.0000     0.0000     0.0000 p5         1 137       0.673900
      2 O1P          1.4810     0.0000     0.0000 o          1 137      -0.770500
      3 O2P         -0.5370     0.0000     1.5180 o          1 137      -0.770500
      4 O3P         -0.5370    -1.3130    -0.7600 o          1 137      -0.770500
      5 O5'         -0.5370     1.3160    -0.7580 os         1 137      -0.460200
      6 C5'          0.0660     2.4390    -0.1120 c3         1 137       0.207400
      7 C4'         -0.4050     3.7290    -0.7880 c3         1 137       0.142100
      8 O4'         -1.8100     3.8860    -0.5870 oh         1 137      -0.617800
      9 C3'          0.3350     4.9230    -0.1800 c3         1 137       0.174100
     10 O3'          1.7410     4.7650    -0.3820 oh         1 137      -0.568800
     11 C2'         -0.1360     6.2120    -0.8550 c3         1 137       0.165100
     12 O2'          0.0330     6.0970    -2.2700 oh         1 137      -0.571800
     13 C1'          0.6910     7.3900    -0.3360 c3         1 137       0.127800
     14 NH           0.1630     8.6390    -0.8930 nu         1 137      -0.446600
     15 C1           0.3340    11.0350    -1.1880 ca         1 137      -0.215600
     16 C2           0.7550     9.8500    -0.5630 ca         1 137       0.120600
     17 C3           1.7700     9.8960     0.3850 ca         1 137      -0.253000
     18 C4           2.3560    11.1020     0.7120 ca         1 137      -0.070000
     19 C5           1.9400    12.2740     0.1000 ca         1 137      -0.249000
     20 C6           0.9350    12.2490    -0.8410 ca         1 137      -0.018000
     21 O71         -1.0690    12.1200    -2.8680 o          1 137      -0.897300
     22 O72         -1.3330     9.9630    -2.4150 o          1 137      -0.897300
     23 H5'1        -0.2230     2.4520     0.9320 h1         1 137       0.010200
     24 H5'2         1.1440     2.3640    -0.1880 h1         1 137       0.010200
     25 H4'         -0.1960     3.6770    -1.8500 h1         1 137       0.014700
     26 HO'4        -2.2770     3.4830    -1.3000 ho         1 137       0.392000
     27 H3'          0.1260     4.9740     0.8820 h1         1 137       0.003700
     28 HO'3         2.1770     4.7390     0.4540 ho         1 137       0.374000
     29 H2'         -1.1820     6.3770    -0.6280 h1         1 137       0.017700
     30 HO'2        -0.7760     6.3160    -2.7020 ho         1 137       0.382000
     31 H1'1         0.6330     7.4240     0.7450 h1         1 137       0.013200
     32 H1'2         1.7240     7.2680    -0.6390 h1         1 137       0.013200
     33 HNH         -0.6490     8.6220    -1.4770 hn         1 137       0.376800
     34 H3           2.1010     8.9850     0.8680 ha         1 137       0.107000
     35 H4           3.1470    11.1330     1.4510 ha         1 137       0.065000
     36 H5           2.4060    13.2150     0.3660 ha         1 137       0.073000
     37 H6           0.6150    13.1680    -1.3170 ha         1 137       0.110000
     38 C7          -0.7400    11.0000    -2.1940 c          1 137       1.005200
@<TRIPOS>BOND
     1     1     2 1   
     2     1     3 1   
     3     1     4 1   
     4     1     5 1   
     5     5     6 1   
     6     6     7 1   
     7     6    23 1   
     8     6    24 1   
     9     7     8 1   
    10     7     9 1   
    11     7    25 1   
    12     8    26 1   
    13     9    10 1   
    14     9    11 1   
    15     9    27 1   
    16    10    28 1   
    17    11    12 1   
    18    11    13 1   
    19    11    29 1   
    20    12    30 1   
    21    13    14 1   
    22    13    31 1   
    23    13    32 1   
    24    14    16 1   
    25    14    33 1   
    26    15    16 ar  
    27    15    20 ar  
    28    15    38 1   
    29    16    17 ar  
    30    17    18 ar  
    31    17    34 1   
    32    18    19 ar  
    33    18    35 1   
    34    19    20 ar  
    35    19    36 1   
    36    20    37 1   
    37    21    38 1   
    38    22    38 1   
@<TRIPOS>SUBSTRUCTURE
     1 137         1 TEMP              0 ****  ****    0 ROOT
