@<TRIPOS>MOLECULE
137
   38    38     1     0     0
SMALL
bcc


@<TRIPOS>ATOM
      1 P           -1.5400    -3.0760     2.1750 p5         1 137       1.312900
      2 O1P         -0.3510    -2.8220     3.0610 o          1 137      -0.931833
      3 O2P         -1.5180    -4.3850     1.4290 o          1 137      -0.931833
      4 O3P         -2.8730    -2.6030     2.6820 o          1 137      -0.931833
      5 O5'         -1.2460    -1.9710     0.8450 os         1 137      -0.569200
      6 C5'         -0.1620    -2.3090     0.0810 c3         1 137       0.214400
      7 C4'         -0.6330    -2.7050    -1.3430 c3         1 137       0.059100
      8 O4'         -1.6300    -1.8090    -1.8190 oh         1 137      -0.664800
      9 C3'          0.5210    -2.7080    -2.3580 c3         1 137       0.110100
     10 O3'          1.3870    -3.8150    -2.1460 oh         1 137      -0.624800
     11 C2'          0.0160    -2.6920    -3.8180 c3         1 137       0.118100
     12 O2'         -0.9920    -3.6730    -4.0290 oh         1 137      -0.629800
     13 C1'          1.1680    -3.0230    -4.7940 c3         1 137       0.205800
     14 NH           1.0740    -2.3910    -6.0880 nu         1 137      -0.748600
     15 C1           1.2050    -2.8000    -8.5120 ca         1 137      -0.198600
     16 C2           0.7170    -3.1320    -7.2130 ca         1 137       0.201600
     17 C3          -0.2170    -4.1970    -7.1010 ca         1 137      -0.218000
     18 C4          -0.6520    -4.8890    -8.2220 ca         1 137      -0.119000
     19 C5          -0.1850    -4.5500    -9.4900 ca         1 137      -0.237000
     20 C6           0.7310    -3.5070    -9.6160 ca         1 137      -0.084000
     21 O71          3.0150    -1.3320    -7.8650 o          1 137      -0.854800
     22 O72          2.3250    -1.2740    -9.9700 o          1 137      -0.854800
     23 H5'1         0.4090    -3.1720     0.5210 h1         1 137      -0.001800
     24 H5'2         0.5270    -1.4180    -0.0260 h1         1 137      -0.001800
     25 H4'         -1.0950    -3.7350    -1.2880 h1         1 137       0.062700
     26 HO'4        -2.0890    -1.4850    -1.0240 ho         1 137       0.448000
     27 H3'          1.1720    -1.8010    -2.2070 h1         1 137       0.055700
     28 HO'3         0.8680    -4.5130    -1.7280 ho         1 137       0.415000
     29 H2'         -0.4170    -1.6720    -4.0160 h1         1 137       0.053700
     30 HO'2        -1.7160    -3.4500    -3.4290 ho         1 137       0.421000
     31 H1'1         2.1220    -2.6810    -4.2990 h1         1 137       0.046700
     32 H1'2         1.2160    -4.1460    -4.8850 h1         1 137       0.046700
     33 HNH          1.8000    -1.7180    -6.2690 hn         1 137       0.449800
     34 H3          -0.6210    -4.4620    -6.1090 ha         1 137       0.157000
     35 H4          -1.3760    -5.7080    -8.1030 ha         1 137       0.092000
     36 H5          -0.5340    -5.0930   -10.3760 ha         1 137       0.086000
     37 H6           1.1080    -3.2150   -10.6100 ha         1 137       0.133000
     38 C7           2.2410    -1.7270    -8.7890 c          1 137       0.913200
@<TRIPOS>BOND
     1     1     2 1   
     2     1     3 1   
     3     1     4 1   
     4     1     5 1   
     5     5     6 1   
     6     6     7 1   
     7     6    23 1   
     8     6    24 1   
     9     7     8 1   
    10     7     9 1   
    11     7    25 1   
    12     8    26 1   
    13     9    10 1   
    14     9    11 1   
    15     9    27 1   
    16    10    28 1   
    17    11    12 1   
    18    11    13 1   
    19    11    29 1   
    20    12    30 1   
    21    13    14 1   
    22    13    31 1   
    23    13    32 1   
    24    14    16 1   
    25    14    33 1   
    26    15    16 ar  
    27    15    20 ar  
    28    15    38 1   
    29    16    17 ar  
    30    17    18 ar  
    31    17    34 1   
    32    18    19 ar  
    33    18    35 1   
    34    19    20 ar  
    35    19    36 1   
    36    20    37 1   
    37    21    38 1   
    38    22    38 1   
@<TRIPOS>SUBSTRUCTURE
     1 137         1 TEMP              0 ****  ****    0 ROOT
