@<TRIPOS>MOLECULE
13A
   33    35     1     0     0
SMALL
bcc


@<TRIPOS>ATOM
      1 O21          3.6820    -0.8970    -0.5930 o          1 13A      -0.634800
      2 S16          4.0650     0.3010     0.0320 s6         1 13A       1.607500
      3 O20          5.4480     0.4670     0.1850 o          1 13A      -0.634800
      4 N17          3.3180     0.4200     1.4890 ns         1 13A      -0.708300
      5 C18          2.6310     1.5180     2.0560 c          1 13A       0.677000
      6 O19          2.2060     1.4400     3.2140 o          1 13A      -0.565500
      7 C13          2.4740     2.6690     1.1680 cc         1 13A       0.160800
      8 N12          1.9130     3.9100     1.4880 nc         1 13A      -0.562000
      9 C11          1.9580     4.6300     0.3590 cd         1 13A       0.395400
     10 N15          3.4660     1.5810    -0.8390 nu         1 13A      -0.736500
     11 C14          2.8770     2.6530    -0.2090 cd         1 13A       0.126000
     12 N10          2.5500     3.9170    -0.7210 na         1 13A      -0.235900
     13 C5           2.7380     4.4470    -2.0450 c3         1 13A       0.257800
     14 O1           2.5940     3.4020    -3.0210 os         1 13A      -0.414600
     15 C4           4.1300     5.1180    -2.2770 c3         1 13A       0.067100
     16 O7           3.8670     6.4950    -2.4710 oh         1 13A      -0.595800
     17 C3           4.6830     4.4820    -3.5700 c3         1 13A       0.088100
     18 O6           5.0090     5.4590    -4.5300 oh         1 13A      -0.581800
     19 C2           3.5810     3.5270    -4.0580 c3         1 13A       0.069100
     20 C8           4.0530     2.1240    -4.4410 c3         1 13A       0.121400
     21 O9           4.8540     1.5130    -3.4550 oh         1 13A      -0.603800
     22 H17          3.3260    -0.3740     2.0970 hn         1 13A       0.355500
     23 H11          1.5970     5.6570     0.2320 h5         1 13A       0.077100
     24 H15          3.4890     1.6010    -1.8400 hn         1 13A       0.496800
     25 H5           1.9120     5.2000    -2.2340 h2         1 13A       0.106700
     26 H4           4.8330     4.9680    -1.4180 h1         1 13A       0.085700
     27 HO7          4.7240     6.9320    -2.5700 ho         1 13A       0.430000
     28 H3           5.6500     3.9440    -3.3760 h1         1 13A       0.097700
     29 HO6          4.2200     5.9980    -4.6870 ho         1 13A       0.419000
     30 H2           3.0510     3.9750    -4.9480 h1         1 13A       0.074700
     31 H81          3.1570     1.4480    -4.5340 h1         1 13A       0.073700
     32 H82          4.5930     2.1840    -5.4230 h1         1 13A       0.073700
     33 HO9          5.7510     1.8600    -3.5330 ho         1 13A       0.412000
@<TRIPOS>BOND
     1     1     2 2   
     2     2     3 2   
     3     2     4 1   
     4     2    10 1   
     5     4     5 1   
     6     4    22 1   
     7     5     6 2   
     8     5     7 1   
     9     7     8 1   
    10     7    11 2   
    11     8     9 2   
    12     9    12 1   
    13     9    23 1   
    14    10    11 1   
    15    10    24 1   
    16    11    12 1   
    17    12    13 1   
    18    13    14 1   
    19    13    15 1   
    20    13    25 1   
    21    14    19 1   
    22    15    16 1   
    23    15    17 1   
    24    15    26 1   
    25    16    27 1   
    26    17    18 1   
    27    17    19 1   
    28    17    28 1   
    29    18    29 1   
    30    19    20 1   
    31    19    30 1   
    32    20    21 1   
    33    20    31 1   
    34    20    32 1   
    35    21    33 1   
@<TRIPOS>SUBSTRUCTURE
     1 13A         1 TEMP              0 ****  ****    0 ROOT
