@<TRIPOS>MOLECULE
molecule
   33    35     1     0     0
SMALL
bcc


@<TRIPOS>ATOM
      1 O21          0.0000     0.0000     0.0000 o          1 13A      -0.609800
      2 S16          1.4200     0.0000     0.0000 s6         1 13A       1.533500
      3 O20          2.2450     0.9660    -0.6370 o          1 13A      -0.609800
      4 N17          1.8720     0.0000     1.5950 ns         1 13A      -0.667300
      5 C18          1.9640    -1.1550     2.2890 c          1 13A       0.650000
      6 O19          2.2040    -1.1320     3.4830 o          1 13A      -0.566500
      7 C13          1.7750    -2.4320     1.6020 cc         1 13A       0.206800
      8 N12          1.6080    -3.6710     2.1200 nc         1 13A      -0.606000
      9 C11          1.4870    -4.5290     1.1470 cd         1 13A       0.412400
     10 N15          1.8750    -1.4750    -0.6290 nu         1 13A      -0.727500
     11 C14          1.7490    -2.5650     0.2150 cd         1 13A       0.051000
     12 N10          1.5700    -3.8750    -0.0530 na         1 13A      -0.176900
     13 C5           1.4860    -4.4860    -1.3820 c3         1 13A       0.249800
     14 O1           0.7760    -5.7420    -1.3190 os         1 13A      -0.386600
     15 C4           2.8920    -4.8910    -1.8890 c3         1 13A       0.089100
     16 O7           3.5340    -3.7940    -2.5420 oh         1 13A      -0.578800
     17 C3           2.5610    -6.0190    -2.9020 c3         1 13A       0.089100
     18 O6           2.5410    -5.5050    -4.2350 oh         1 13A      -0.569800
     19 C2           1.1580    -6.4980    -2.4800 c3         1 13A       0.124100
     20 C8           1.1970    -7.9890    -2.1410 c3         1 13A       0.142400
     21 O9          -0.1250    -8.4490    -1.8570 oh         1 13A      -0.590800
     22 H17          2.0800     0.8670     2.0500 hn         1 13A       0.366500
     23 H11          1.3420    -5.5950     1.2680 h5         1 13A       0.088100
     24 H15          2.5020    -1.5150    -1.4080 hn         1 13A       0.474800
     25 H5           1.0080    -3.8160    -2.0860 h2         1 13A       0.111700
     26 H4           3.4980    -5.2720    -1.0760 h1         1 13A       0.065700
     27 HO7          4.4660    -3.8520    -2.4130 ho         1 13A       0.413000
     28 H3           3.2770    -6.8270    -2.8120 h1         1 13A       0.050700
     29 HO6          3.1050    -6.0270    -4.7820 ho         1 13A       0.409000
     30 H2           0.4530    -6.3170    -3.2830 h1         1 13A       0.093700
     31 H81          1.8270    -8.1450    -1.2740 h1         1 13A       0.030200
     32 H82          1.5980    -8.5400    -2.9830 h1         1 13A       0.030200
     33 HO9         -0.1340    -9.3910    -1.8430 ho         1 13A       0.408000
@<TRIPOS>BOND
     1     1     2 2   
     2     2     3 2   
     3     2     4 1   
     4     2    10 1   
     5     4     5 1   
     6     4    22 1   
     7     5     6 2   
     8     5     7 1   
     9     7     8 1   
    10     7    11 2   
    11     8     9 2   
    12     9    12 1   
    13     9    23 1   
    14    10    11 1   
    15    10    24 1   
    16    11    12 1   
    17    12    13 1   
    18    13    14 1   
    19    13    15 1   
    20    13    25 1   
    21    14    19 1   
    22    15    16 1   
    23    15    17 1   
    24    15    26 1   
    25    16    27 1   
    26    17    18 1   
    27    17    19 1   
    28    17    28 1   
    29    18    29 1   
    30    19    20 1   
    31    19    30 1   
    32    20    21 1   
    33    20    31 1   
    34    20    32 1   
    35    21    33 1   
@<TRIPOS>SUBSTRUCTURE
     1 13A         1 TEMP              0 ****  ****    0 ROOT
