@<TRIPOS>MOLECULE
13C
   44    45     1     0     0
SMALL
bcc


@<TRIPOS>ATOM
      1 C1          0.1640   -1.0230   -0.2000 c         1 13C      0.601700
      2 C2          1.4850   -0.4060   -0.0850 ca        1 13C     -0.280600
      3 C3          2.2360   -0.1330   -1.2510 ca        1 13C      0.212100
      4 C4          3.5530    0.3080   -1.1800 ca        1 13C     -0.242000
      5 C5          4.1340    0.5030    0.0860 ca        1 13C      0.253100
      6 C6          3.3800    0.2820    1.2660 ca        1 13C     -0.103600
      7 C7          2.0620   -0.1800    1.1870 ca        1 13C      0.095700
      8 C8          1.2540   -0.3770    2.4220 c3        1 13C     -0.176100
      9 C9          1.4530   -1.7050    3.1200 c         1 13C      0.575100
     10 C10         0.4600   -1.9780    4.2190 c3        1 13C     -0.178400
     11 C11        -0.8180   -2.5880    3.6700 c3        1 13C     -0.081400
     12 C12        -1.9470   -1.5830    3.5290 c3        1 13C     -0.075400
     13 C13        -2.8890   -1.9930    2.4110 c3        1 13C     -0.069200
     14 C14        -3.8980   -0.9540    2.0910 c2        1 13C     -0.110200
     15 C15        -3.7240    0.0900    1.2730 c2        1 13C     -0.213200
     16 C16        -2.4430    0.4660    0.6260 c3        1 13C     -0.056200
     17 C17        -2.2190   -0.3410   -0.6530 c3        1 13C      0.104800
     18 O2         -0.2640   -2.0440    0.3160 o         1 13C     -0.415100
     19 O3          1.5990   -0.3200   -2.4550 oh        1 13C     -0.548100
     20 O4          5.4240    0.9240    0.0710 oh        1 13C     -0.453100
     21 CL1         4.1080    0.5770    2.7700 cl        1 13C     -0.029400
     22 N1         -0.8040   -0.2910   -1.1260 n4        1 13C     -0.674800
     23 O5          2.3490   -2.4910    2.8170 o         1 13C     -0.490100
     24 H1         -0.7320   -0.7270   -2.0550 hn        1 13C      0.462300
     25 H4          4.1520    0.4970   -2.0840 ha        1 13C      0.187000
     26 H3          2.2530   -0.2570   -3.1720 ho        1 13C      0.472000
     27 HA          5.7590    0.9960    0.9850 ho        1 13C      0.461000
     28 H81C        0.1590   -0.2840    2.1860 hc        1 13C      0.088700
     29 H82C        1.4990    0.4330    3.1680 hc        1 13C      0.088700
     30 H101        0.2410   -1.0310    4.7770 hc        1 13C      0.080200
     31 H102        0.9320   -2.6970    4.9440 hc        1 13C      0.080200
     32 H111       -0.6020   -3.0670    2.6750 hc        1 13C      0.063200
     33 H112       -1.1500   -3.4120    4.3560 hc        1 13C      0.063200
     34 H121       -1.5400   -0.5580    3.3230 hc        1 13C      0.045700
     35 H122       -2.5140   -1.5130    4.4950 hc        1 13C      0.045700
     36 H131       -2.2850   -2.2300    1.4910 hc        1 13C      0.056200
     37 H132       -3.4140   -2.9420    2.7080 hc        1 13C      0.056200
     38 H14        -4.8840   -1.1000    2.5710 ha        1 13C      0.147000
     39 H15        -4.5610    0.7810    1.0730 ha        1 13C      0.146000
     40 H161       -2.4500    1.5620    0.3830 hc        1 13C      0.061700
     41 H162       -1.5980    0.2840    1.3470 hc        1 13C      0.061700
     42 H171       -2.8710    0.0610   -1.4800 hx        1 13C      0.113200
     43 H172       -2.4840   -1.4250   -0.4770 hx        1 13C      0.113200
     44 H12        -0.4930    0.6820   -1.2110 hn        1 13C      0.462300
@<TRIPOS>BOND
     1    1    2 1   
     2    1   18 2   
     3    1   22 1   
     4    2    3 ar  
     5    2    7 ar  
     6    3    4 ar  
     7    3   19 1   
     8    4    5 ar  
     9    4   25 1   
    10    5    6 ar  
    11    5   20 1   
    12    6    7 ar  
    13    6   21 1   
    14    7    8 1   
    15    8    9 1   
    16    8   28 1   
    17    8   29 1   
    18    9   10 1   
    19    9   23 2   
    20   10   11 1   
    21   10   30 1   
    22   10   31 1   
    23   11   12 1   
    24   11   32 1   
    25   11   33 1   
    26   12   13 1   
    27   12   34 1   
    28   12   35 1   
    29   13   14 1   
    30   13   36 1   
    31   13   37 1   
    32   14   15 2   
    33   14   38 1   
    34   15   16 1   
    35   15   39 1   
    36   16   17 1   
    37   16   40 1   
    38   16   41 1   
    39   17   22 1   
    40   17   42 1   
    41   17   43 1   
    42   19   26 1   
    43   20   27 1   
    44   22   24 1   
    45   22   44 1   
@<TRIPOS>SUBSTRUCTURE
     1 13C         1 TEMP              0 ****  ****    0 ROOT
