@<TRIPOS>MOLECULE
13D
   17    16     1     0     0
SMALL
bcc


@<TRIPOS>ATOM
      1 CA           0.0100     0.4260     0.6520 c3         1 13D       0.103800
      2 CB           1.5250     0.3600     0.4560 c3         1 13D      -0.138400
      3 CC           2.0810    -0.7300     1.3740 c3         1 13D       0.103800
      4 ND           3.5580    -0.8910     1.2740 nz         1 13D      -0.837600
      5 NAA         -0.6520     1.4580    -0.1940 nz         1 13D      -0.837600
      6 HAC1        -0.2310     0.6640     1.7320 hx         1 13D       0.131700
      7 HAC2        -0.4560    -0.5740     0.3960 hx         1 13D       0.131700
      8 HBC1         1.9920     1.3530     0.7070 hc         1 13D       0.096700
      9 HBC2         1.7680     0.1260    -0.6170 hc         1 13D       0.096700
     10 HCC1         1.6110    -1.7270     1.1170 hx         1 13D       0.131700
     11 HCC2         1.8370    -0.4880     2.4520 hx         1 13D       0.131700
     12 HDN1         3.8650    -1.6390     1.9150 hn         1 13D       0.480800
     13 HDN2         4.0410    -0.0210     1.5320 hn         1 13D       0.480800
     14 HAA1        -0.4960     1.2700    -1.1920 hn         1 13D       0.480800
     15 HAA2        -1.6680     1.4480    -0.0130 hn         1 13D       0.480800
     16 HD3          3.8350    -1.1480     0.3170 hn         1 13D       0.480800
     17 HAA3        -0.2920     2.3960     0.0230 hn         1 13D       0.480800
@<TRIPOS>BOND
     1     1     2 1   
     2     1     5 1   
     3     1     6 1   
     4     1     7 1   
     5     2     3 1   
     6     2     8 1   
     7     2     9 1   
     8     3     4 1   
     9     3    10 1   
    10     3    11 1   
    11     4    12 1   
    12     4    13 1   
    13     4    16 1   
    14     5    14 1   
    15     5    15 1   
    16     5    17 1   
@<TRIPOS>SUBSTRUCTURE
     1 13D         1 TEMP              0 ****  ****    0 ROOT
