@<TRIPOS>MOLECULE
molecule
   17    16     1     0     0
SMALL
bcc


@<TRIPOS>ATOM
      1 CA           0.0000     0.0000     0.0000 c3         1 13D       0.109800
      2 CB           1.5300     0.0000     0.0000 c3         1 13D      -0.149400
      3 CC           2.0400     0.0000     1.4420 c3         1 13D       0.109800
      4 ND           3.5090    -0.0000     1.4420 nz         1 13D      -0.807600
      5 NAA         -0.4900     0.0000    -1.3850 nz         1 13D      -0.807600
      6 HAC1        -0.3610     0.8840     0.5110 hx         1 13D       0.129700
      7 HAC2        -0.3610    -0.8850     0.5110 hx         1 13D       0.129700
      8 HBC1         1.8910     0.8840    -0.5110 hc         1 13D       0.089700
      9 HBC2         1.8910    -0.8840    -0.5110 hc         1 13D       0.089700
     10 HCC1         1.6790     0.8850     1.9530 hx         1 13D       0.129700
     11 HCC2         1.6790    -0.8840     1.9530 hx         1 13D       0.129700
     12 HDN1         3.8420    -0.8170     0.9700 hn         1 13D       0.474467
     13 HDN2         3.8430    -0.0000     2.3850 hn         1 13D       0.474467
     14 HAA1        -0.1560     0.8170    -1.8560 hn         1 13D       0.474467
     15 HAA2        -0.1560    -0.8170    -1.8570 hn         1 13D       0.474467
     16 HD3          3.8430     0.8070     0.9530 hn         1 13D       0.474467
     17 HAA3        -1.4900    -0.0170    -1.3850 hn         1 13D       0.474467
@<TRIPOS>BOND
     1     1     2 1
     2     1     5 1
     3     1     6 1
     4     1     7 1
     5     2     3 1
     6     2     8 1
     7     2     9 1
     8     3     4 1
     9     3    10 1
    10     3    11 1
    11     4    12 1
    12     4    13 1
    13     5    14 1
    14     5    15 1
    15    16     4 1
    16    17     5 1
@<TRIPOS>SUBSTRUCTURE
     1 13D         1 TEMP              0 ****  ****    0 ROOT
