@<TRIPOS>MOLECULE
13E
   42    42     1     0     0
SMALL
bcc


@<TRIPOS>ATOM
      1 N           0.1150   -0.9280   -0.6720 n4        1 13E     -0.872600
      2 C1          0.6730    0.1850    0.1520 c3        1 13E      0.099500
      3 C2          0.7780    1.4900   -0.6610 c3        1 13E     -0.049100
      4 C3          1.3680    1.2680   -2.0080 ca        1 13E     -0.170300
      5 C4          0.6990    1.7300   -3.1470 ca        1 13E     -0.128000
      6 C5          2.6190    0.6500   -2.1440 ca        1 13E     -0.128000
      7 C6          1.2710    1.5690   -4.4090 ca        1 13E     -0.113500
      8 C7          3.1850    0.4870   -3.4060 ca        1 13E     -0.113500
      9 C8          2.5120    0.9460   -4.5410 ca        1 13E     -0.096000
     10 C9         -0.1430    0.4960    1.4250 c3        1 13E      0.096800
     11 N2         -0.1760   -0.5430    2.4760 n4        1 13E     -0.804000
     12 C10         1.1780   -1.0930    2.8320 c3        1 13E     -0.035500
     13 C11         1.1880   -1.7590    4.2030 c3        1 13E     -0.093400
     14 C12         1.0210   -0.7990    5.3490 c3        1 13E     -0.036300
     15 SD         -0.5440    0.0470    5.3680 ss        1 13E     -0.312200
     16 C13        -1.6510   -1.1070    6.1070 c3        1 13E     -0.042000
     17 C           1.5730   -2.1670    1.7480 c         1 13E      0.899600
     18 O           0.5940   -2.8360    1.2730 o         1 13E     -0.762300
     19 O1          2.7540   -2.1970    1.3730 o         1 13E     -0.762300
     20 H1         -0.8620   -0.7560   -0.9030 hn        1 13E      0.474800
     21 H2          0.6580   -0.9780   -1.5460 hn        1 13E      0.474800
     22 H4          1.7260   -0.1440    0.4420 hx        1 13E      0.153700
     23 H5         -0.2350    1.9650   -0.7500 hc        1 13E      0.083700
     24 H6          1.4340    2.1960   -0.0810 hc        1 13E      0.083700
     25 H7         -0.2710    2.2420   -3.0520 ha        1 13E      0.141500
     26 H8          3.1720    0.3110   -1.2540 ha        1 13E      0.141500
     27 H9          0.7440    1.9420   -5.3010 ha        1 13E      0.158000
     28 H10         4.1710    0.0040   -3.5060 ha        1 13E      0.158000
     29 H11         2.9660    0.8230   -5.5370 ha        1 13E      0.159000
     30 H12        -1.2110    0.7400    1.1500 hx        1 13E      0.109200
     31 H13         0.3220    1.4240    1.8760 hx        1 13E      0.109200
     32 H14        -0.7280   -1.3550    2.1490 hn        1 13E      0.470300
     33 H16         1.9210   -0.2470    2.8130 hx        1 13E      0.099700
     34 H17         2.1930   -2.2670    4.2920 hc        1 13E      0.100200
     35 H18         0.4130   -2.5710    4.2460 hc        1 13E      0.100200
     36 H19         1.7860    0.0180    5.3030 h1        1 13E      0.104200
     37 H20         1.1680   -1.3440    6.3160 h1        1 13E      0.104200
     38 H21        -1.7490   -2.0380    5.5090 h1        1 13E      0.085367
     39 H22        -2.6390   -0.5930    6.1690 h1        1 13E      0.085367
     40 H23        -1.3200   -1.3720    7.1370 h1        1 13E      0.085367
     41 HN3         0.2100   -1.8550   -0.1680 hn        1 13E      0.474800
     42 H221       -0.6220   -0.1560    3.3720 hn        1 13E      0.470300
@<TRIPOS>BOND
     1    1    2 1
     2    1   20 1
     3    1   21 1
     4    1   41 1
     5    2    3 1
     6    2   10 1
     7    2   22 1
     8    3    4 1
     9    3   23 1
    10    3   24 1
    11    4    5 ar
    12    4    6 ar
    13    5    7 ar
    14    5   25 1
    15    6    8 ar
    16    6   26 1
    17    7    9 ar
    18    7   27 1
    19    8    9 ar
    20    8   28 1
    21    9   29 1
    22   10   11 1
    23   10   30 1
    24   10   31 1
    25   11   12 1
    26   11   32 1
    27   11   42 1
    28   12   13 1
    29   12   17 1
    30   12   33 1
    31   13   14 1
    32   13   34 1
    33   13   35 1
    34   14   15 1
    35   14   36 1
    36   14   37 1
    37   15   16 1
    38   16   38 1
    39   16   39 1
    40   16   40 1
    41   17   18 1
    42   17   19 1
@<TRIPOS>SUBSTRUCTURE
     1 13E         1 TEMP              0 ****  ****    0 ROOT
