@<TRIPOS>MOLECULE
molecule
   37    39     1     0     0
SMALL
bcc


@<TRIPOS>ATOM
      1 C4           0.0000     0.0000     0.0000 ca         1 13F       0.016000
      2 C14          2.1020    -0.0000     3.7160 c3         1 13F       0.154300
      3 C5           1.3820     0.0000     0.0000 ca         1 13F      -0.345500
      4 C6           1.6130     2.5040    -2.0920 ca         1 13F       0.114600
      5 C11          0.9010     2.4910    -3.2850 ca         1 13F      -0.119500
      6 C7           1.3030     3.4380    -1.1120 ca         1 13F      -0.119500
      7 C8           0.2890     4.3500    -1.3260 ca         1 13F      -0.125500
      8 C9          -0.4190     4.3340    -2.5150 ca         1 13F      -0.122000
      9 C10         -0.1130     3.4060    -3.4920 ca         1 13F      -0.125500
     10 C12          2.0750     0.0000     1.1980 ca         1 13F       0.016000
     11 C13          1.3830     0.0000     2.3870 ca         1 13F      -0.171300
     12 N1          -0.6950     0.0010     3.6110 ns         1 13F      -0.463100
     13 N2           2.6350     1.5760    -1.8770 nu         1 13F      -0.783500
     14 C3          -0.6990     0.0050     1.1920 ca         1 13F      -0.204000
     15 C1          -0.0750     0.0020     4.7980 c          1 13F       0.820500
     16 C2          -0.0080     0.0000     2.3970 ca         1 13F       0.137600
     17 N            1.2640     0.0000     4.9270 n          1 13F      -0.496800
     18 C            1.8810    -0.0000     6.2560 c3         1 13F       0.131300
     19 S            2.2630     0.0000    -1.5260 sy         1 13F       1.427200
     20 O            3.4980    -0.6570    -1.2780 o          1 13F      -0.633800
     21 O1           1.3420    -0.4250    -2.5220 o          1 13F      -0.633800
     22 H1          -0.5380    -0.0000    -0.9400 ha         1 13F       0.160000
     23 H2           2.7360     0.8770     3.7500 h1         1 13F       0.048200
     24 H3           2.7350    -0.8790     3.7500 h1         1 13F       0.048200
     25 H4           1.1400     1.7640    -4.0520 ha         1 13F       0.145000
     26 H5           1.8560     3.4510    -0.1810 ha         1 13F       0.145000
     27 H6           0.0470     5.0780    -0.5620 ha         1 13F       0.135500
     28 H7          -1.2140     5.0510    -2.6800 ha         1 13F       0.133000
     29 H8          -0.6680     3.3970    -4.4220 ha         1 13F       0.135500
     30 H9           3.1590    -0.0000     1.2000 ha         1 13F       0.152000
     31 H10         -1.6960     0.0000     3.5950 hn         1 13F       0.354500
     32 H11          3.5920     1.8570    -1.9610 hn         1 13F       0.463800
     33 H12         -1.7820     0.0050     1.1860 ha         1 13F       0.143000
     34 H13          1.5710     0.8840     6.7990 h1         1 13F       0.047033
     35 H14          2.9600    -0.0010     6.1530 h1         1 13F       0.047033
     36 H15          1.5700    -0.8850     6.7990 h1         1 13F       0.047033
     37 O2          -0.7550     0.0010     5.8070 o          1 13F      -0.677500
@<TRIPOS>BOND
     1    18    17 1   
     2     2    17 1   
     3     2    11 1   
     4    17    15 1   
     5    15    37 2   
     6    15    12 1   
     7    11    10 ar  
     8    11    16 ar  
     9    10     3 ar  
    10    12    16 1   
    11    16    14 ar  
    12    21    19 2   
    13     3    19 1   
    14     3     1 ar  
    15    14     1 ar  
    16    19    20 2   
    17    19    13 1   
    18     5     9 ar  
    19     5     4 ar  
    20     9     8 ar  
    21    13     4 1   
    22     4     6 ar  
    23     8     7 ar  
    24     6     7 ar  
    25     1    22 1   
    26     2    23 1   
    27     2    24 1   
    28     5    25 1   
    29     6    26 1   
    30     7    27 1   
    31     8    28 1   
    32     9    29 1   
    33    10    30 1   
    34    12    31 1   
    35    13    32 1   
    36    14    33 1   
    37    18    34 1   
    38    18    35 1   
    39    18    36 1   
@<TRIPOS>SUBSTRUCTURE
     1 13F         1 TEMP              0 ****  ****    0 ROOT
