@<TRIPOS>MOLECULE
13F
   37    39     1     0     0
SMALL
bcc


@<TRIPOS>ATOM
      1 C4           0.0000     0.0000     0.0000 ca         1 13F       0.051000
      2 C14          2.1020    -0.0000     3.7160 c3         1 13F       0.122300
      3 C5           1.3820     0.0000     0.0000 ca         1 13F      -0.193500
      4 C6           1.6130     2.5040    -2.0920 ca         1 13F       0.040600
      5 C11          0.9010     2.4910    -3.2850 ca         1 13F      -0.100500
      6 C7           1.3030     3.4380    -1.1120 ca         1 13F      -0.100500
      7 C8           0.2890     4.3500    -1.3260 ca         1 13F      -0.095500
      8 C9          -0.4190     4.3340    -2.5150 ca         1 13F      -0.099000
      9 C10         -0.1130     3.4060    -3.4920 ca         1 13F      -0.095500
     10 C12          2.0750     0.0000     1.1980 ca         1 13F       0.054000
     11 C13          1.3830     0.0000     2.3870 ca         1 13F      -0.185300
     12 N1          -0.6950     0.0010     3.6110 ns         1 13F      -0.015100
     13 N2           2.6350     1.5760    -1.8770 nu         1 13F      -0.418500
     14 C3          -0.6990     0.0050     1.1920 ca         1 13F      -0.184000
     15 C1          -0.0750     0.0020     4.7980 c          1 13F       0.610500
     16 C2          -0.0080     0.0000     2.3970 ca         1 13F      -0.014400
     17 N            1.2640     0.0000     4.9270 n          1 13F      -0.158800
     18 C            1.8810    -0.0000     6.2560 c3         1 13F       0.119300
     19 S            2.2630     0.0000    -1.5260 sy         1 13F       1.041200
     20 O            3.4980    -0.6570    -1.2780 o          1 13F      -0.585800
     21 O1           1.3420    -0.4250    -2.5220 o          1 13F      -0.585800
     22 H1          -0.5380    -0.0000    -0.9400 ha         1 13F       0.128000
     23 H2           2.7360     0.8770     3.7500 h1         1 13F       0.016200
     24 H3           2.7350    -0.8790     3.7500 h1         1 13F       0.016200
     25 H4           1.1400     1.7640    -4.0520 ha         1 13F       0.117000
     26 H5           1.8560     3.4510    -0.1810 ha         1 13F       0.117000
     27 H6           0.0470     5.0780    -0.5620 ha         1 13F       0.105000
     28 H7          -1.2140     5.0510    -2.6800 ha         1 13F       0.103000
     29 H8          -0.6680     3.3970    -4.4220 ha         1 13F       0.105000
     30 H9           3.1590    -0.0000     1.2000 ha         1 13F       0.122000
     31 H10         -1.6960     0.0000     3.5950 hn         1 13F       0.190500
     32 H11          3.5920     1.8570    -1.9610 hn         1 13F       0.347800
     33 H12         -1.7820     0.0050     1.1860 ha         1 13F       0.119000
     34 H13          1.5710     0.8840     6.7990 h1         1 13F       0.012033
     35 H14          2.9600    -0.0010     6.1530 h1         1 13F       0.012033
     36 H15          1.5700    -0.8850     6.7990 h1         1 13F       0.012033
     37 O2          -0.7550     0.0010     5.8070 o          1 13F      -0.727500
@<TRIPOS>BOND
     1     1     3 ar  
     2     1    14 ar  
     3     1    22 1   
     4     2    11 1   
     5     2    17 1   
     6     2    23 1   
     7     2    24 1   
     8     3    10 ar  
     9     3    19 1   
    10     4     5 ar  
    11     4     6 ar  
    12     4    13 1   
    13     5     9 ar  
    14     5    25 1   
    15     6     7 ar  
    16     6    26 1   
    17     7     8 ar  
    18     7    27 1   
    19     8     9 ar  
    20     8    28 1   
    21     9    29 1   
    22    10    11 ar  
    23    10    30 1   
    24    11    16 ar  
    25    12    15 1   
    26    12    16 1   
    27    12    31 1   
    28    13    19 1   
    29    13    32 1   
    30    14    16 ar  
    31    14    33 1   
    32    15    17 1   
    33    15    37 2   
    34    17    18 1   
    35    18    34 1   
    36    18    35 1   
    37    18    36 1   
    38    19    20 2   
    39    19    21 2   
@<TRIPOS>SUBSTRUCTURE
     1 13F         1 TEMP              0 ****  ****    0 ROOT
