@<TRIPOS>MOLECULE
13F
   37    39     1     0     0
SMALL
bcc


@<TRIPOS>ATOM
      1 C4          -0.2380     0.5090    -0.0750 ca         1 13F       0.029000
      2 C14          1.9440    -0.8110     3.3730 c3         1 13F       0.150300
      3 C5           1.0810     0.0560    -0.2220 ca         1 13F      -0.437500
      4 C6           2.0080    -2.6660    -1.9570 ca         1 13F       0.169600
      5 C11          3.3060    -2.7850    -1.4100 ca         1 13F      -0.176500
      6 C7           1.2410    -3.8390    -2.1450 ca         1 13F      -0.176500
      7 C8           1.7580    -5.0800    -1.7880 ca         1 13F      -0.102000
      8 C9           3.0340    -5.1860    -1.2380 ca         1 13F      -0.153000
      9 C10          3.7990    -4.0370    -1.0540 ca         1 13F      -0.102000
     10 C12          1.7720    -0.3600     0.9230 ca         1 13F       0.037000
     11 C13          1.1760    -0.3420     2.1760 ca         1 13F      -0.185300
     12 N1          -0.7590     0.1100     3.5620 ns         1 13F      -0.466100
     13 N2           1.4780    -1.4190    -2.3270 nu         1 13F      -0.774500
     14 C3          -0.8630     0.5420     1.1600 ca         1 13F      -0.216000
     15 C1          -0.0490    -0.2300     4.7380 c          1 13F       0.812500
     16 C2          -0.1630     0.1100     2.3130 ca         1 13F       0.163600
     17 N            1.3060    -0.5640     4.6470 n          1 13F      -0.460800
     18 C            1.9710    -1.0950     5.8060 c3         1 13F       0.083300
     19 S            1.8260     0.0590    -1.7240 sy         1 13F       1.525200
     20 O            1.1710     0.9940    -2.5580 o          1 13F      -0.651800
     21 O1           3.2120     0.2240    -1.5390 o          1 13F      -0.651800
     22 H1          -0.7840     0.8660    -0.9680 ha         1 13F       0.157000
     23 H2           2.9480    -0.2910     3.3950 h1         1 13F       0.054200
     24 H3           2.1400    -1.9210     3.2600 h1         1 13F       0.054200
     25 H4           3.9450    -1.8950    -1.2740 ha         1 13F       0.150000
     26 H5           0.2320    -3.7800    -2.5790 ha         1 13F       0.150000
     27 H6           1.1490    -5.9840    -1.9430 ha         1 13F       0.135000
     28 H7           3.4360    -6.1700    -0.9570 ha         1 13F       0.135000
     29 H8           4.8130    -4.1130    -0.6310 ha         1 13F       0.135000
     30 H9           2.8210    -0.6990     0.8240 ha         1 13F       0.156000
     31 H10         -1.6890     0.4450     3.6790 hn         1 13F       0.350500
     32 H11          0.7590    -1.4970    -3.0130 hn         1 13F       0.453800
     33 H12         -1.8970     0.9080     1.2430 ha         1 13F       0.148000
     34 H13          1.4190    -0.7930     6.7360 h1         1 13F       0.052700
     35 H14          2.0250    -2.2170     5.7600 h1         1 13F       0.052700
     36 H15          3.0140    -0.6820     5.8400 h1         1 13F       0.052700
     37 O2          -0.6610    -0.1740     5.8280 o          1 13F      -0.649500
@<TRIPOS>BOND
     1     1     3 ar  
     2     1    14 ar  
     3     1    22 1   
     4     2    11 1   
     5     2    17 1   
     6     2    23 1   
     7     2    24 1   
     8     3    10 ar  
     9     3    19 1   
    10     4     5 ar  
    11     4     6 ar  
    12     4    13 1   
    13     5     9 ar  
    14     5    25 1   
    15     6     7 ar  
    16     6    26 1   
    17     7     8 ar  
    18     7    27 1   
    19     8     9 ar  
    20     8    28 1   
    21     9    29 1   
    22    10    11 ar  
    23    10    30 1   
    24    11    16 ar  
    25    12    15 1   
    26    12    16 1   
    27    12    31 1   
    28    13    19 1   
    29    13    32 1   
    30    14    16 ar  
    31    14    33 1   
    32    15    17 1   
    33    15    37 2   
    34    17    18 1   
    35    18    34 1   
    36    18    35 1   
    37    18    36 1   
    38    19    20 2   
    39    19    21 2   
@<TRIPOS>SUBSTRUCTURE
     1 13F         1 TEMP              0 ****  ****    0 ROOT
