@<TRIPOS>MOLECULE
13H
   52    51     1     0     0
SMALL
bcc


@<TRIPOS>ATOM
      1 C18        -0.0700    2.1620    3.2560 c3        1 13H     -0.092100
      2 C17         0.4900    1.0070    2.4680 c3        1 13H     -0.079400
      3 C16         1.9990    0.9430    2.5710 c3        1 13H     -0.078400
      4 C15         2.5550   -0.2220    1.7810 c3        1 13H     -0.078400
      5 C14         4.0640   -0.2770    1.8760 c3        1 13H     -0.073400
      6 C13         4.6240   -1.4870    1.1250 c3        1 13H      0.180300
      7 O3          4.2100   -2.6500    1.8360 oh        1 13H     -0.607800
      8 C12         6.1020   -1.3660    0.9540 c2        1 13H     -0.228200
      9 C11         7.0580   -1.7350    1.8170 ce        1 13H     -0.098000
     10 C10         6.8450   -2.3160    3.1250 ce        1 13H     -0.187000
     11 C9          7.8150   -2.8500    3.8820 c2        1 13H     -0.122200
     12 C8          9.2430   -2.9410    3.4960 c3        1 13H     -0.061200
     13 C7         10.0790   -3.6480    4.5440 c3        1 13H     -0.078400
     14 C6         11.5300   -3.7290    4.1210 c3        1 13H     -0.079400
     15 C5         12.3700   -4.4350    5.1640 c3        1 13H     -0.079400
     16 C4         13.8220   -4.5190    4.7410 c3        1 13H     -0.078400
     17 C3         14.6650   -5.2150    5.7890 c3        1 13H     -0.065400
     18 C2         16.1100   -5.3200    5.3690 c3        1 13H     -0.194400
     19 C1         16.9890   -5.8510    6.5160 c         1 13H      0.907600
     20 O1         17.8370   -6.7480    6.2400 o         1 13H     -0.852800
     21 O2         16.8380   -5.3570    7.6710 o         1 13H     -0.852800
     22 H118       -1.1830    2.1920    3.1660 hc        1 13H      0.030700
     23 H218        0.1940    2.0660    4.3380 hc        1 13H      0.030700
     24 H318        0.3400    3.1310    2.8820 hc        1 13H      0.030700
     25 H117        0.1940    1.1080    1.3900 hc        1 13H      0.037700
     26 H217        0.0500    0.0460    2.8420 hc        1 13H      0.037700
     27 H116        2.2970    0.8420    3.6490 hc        1 13H      0.038700
     28 H216        2.4430    1.9010    2.1940 hc        1 13H      0.038700
     29 H115        2.1290   -1.1860    2.1670 hc        1 13H      0.046200
     30 H215        2.2470   -0.1290    0.7060 hc        1 13H      0.046200
     31 H114        4.5130    0.6520    1.4410 hc        1 13H      0.050700
     32 H214        4.3760   -0.3440    2.9510 hc        1 13H      0.050700
     33 H13         4.1480   -1.5410    0.0990 h1        1 13H      0.033700
     34 H3          4.8490   -3.3460    1.6410 ho        1 13H      0.408000
     35 H12         6.3920   -0.9010   -0.0040 ha        1 13H      0.122000
     36 H11         8.1180   -1.5860    1.5330 ha        1 13H      0.124000
     37 H10         5.8050   -2.2920    3.5000 ha        1 13H      0.139000
     38 H9          7.5640   -3.2620    4.8750 ha        1 13H      0.126000
     39 H18C        9.6520   -1.9060    3.3320 hc        1 13H      0.051200
     40 H28C        9.3350   -3.4860    2.5170 hc        1 13H      0.051200
     41 H17C       10.0010   -3.1020    5.5200 hc        1 13H      0.041200
     42 H27C        9.6770   -4.6830    4.7100 hc        1 13H      0.041200
     43 H16C       11.6070   -4.2760    3.1440 hc        1 13H      0.035200
     44 H26C       11.9310   -2.6950    3.9530 hc        1 13H      0.035200
     45 H15C       11.9690   -5.4680    5.3340 hc        1 13H      0.037700
     46 H25C       12.2970   -3.8880    6.1400 hc        1 13H      0.037700
     47 H14C       13.8980   -5.0710    3.7680 hc        1 13H      0.026200
     48 H24C       14.2210   -3.4850    4.5650 hc        1 13H      0.026200
     49 H13C       14.6130   -4.6560    6.7610 hc        1 13H      0.044200
     50 H23C       14.2550   -6.2420    5.9760 hc        1 13H      0.044200
     51 H12C       16.2110   -5.9930    4.4820 hc        1 13H      0.018700
     52 H22C       16.4990   -4.3100    5.0810 hc        1 13H      0.018700
@<TRIPOS>BOND
     1    1    2 1
     2    1   22 1
     3    1   23 1
     4    1   24 1
     5    2    3 1
     6    2   25 1
     7    2   26 1
     8    3    4 1
     9    3   27 1
    10    3   28 1
    11    4    5 1
    12    4   29 1
    13    4   30 1
    14    5    6 1
    15    5   31 1
    16    5   32 1
    17    6    7 1
    18    6    8 1
    19    6   33 1
    20    7   34 1
    21    8    9 2
    22    8   35 1
    23    9   10 1
    24    9   36 1
    25   10   11 2
    26   10   37 1
    27   11   12 1
    28   11   38 1
    29   12   13 1
    30   12   39 1
    31   12   40 1
    32   13   14 1
    33   13   41 1
    34   13   42 1
    35   14   15 1
    36   14   43 1
    37   14   44 1
    38   15   16 1
    39   15   45 1
    40   15   46 1
    41   16   17 1
    42   16   47 1
    43   16   48 1
    44   17   18 1
    45   17   49 1
    46   17   50 1
    47   18   19 1
    48   18   51 1
    49   18   52 1
    50   19   20 1
    51   19   21 1
@<TRIPOS>SUBSTRUCTURE
     1 13H         1 TEMP              0 ****  ****    0 ROOT
