@<TRIPOS>MOLECULE
13I
   55    56     1     0     0
SMALL
bcc


@<TRIPOS>ATOM
      1 C01        -0.0110   -0.6340    0.0980 ca        1 13I      0.206100
      2 C02         1.3710   -0.6250   -0.0680 ca        1 13I     -0.240000
      3 C03         2.1840   -0.4090    1.0570 ca        1 13I      0.240100
      4 C04         1.6090   -0.2040    2.3360 ca        1 13I     -0.107600
      5 C05         0.2190   -0.2290    2.4980 ca        1 13I      0.091700
      6 C06        -0.6000   -0.4570    1.3690 ca        1 13I     -0.258600
      7 C07        -2.0570   -0.5520    1.5250 c         1 13I      0.614700
      8 O08        -2.6920   -1.3010    2.2550 o         1 13I     -0.441100
      9 N09        -2.8530    0.4230    0.6830 n4        1 13I     -0.670800
     10 C10        -4.2440   -0.0170    0.3700 c3        1 13I      0.120800
     11 C11        -5.2480    0.2870    1.4780 c3        1 13I     -0.068200
     12 C12        -5.2600    1.7210    1.8470 c2        1 13I     -0.246200
     13 C13        -5.3970    2.2010    3.0870 c2        1 13I     -0.096200
     14 C14        -5.5540    1.4020    4.3280 c3        1 13I     -0.065200
     15 C15        -4.2420    0.8400    4.8410 c3        1 13I     -0.073400
     16 C16        -3.2860    1.9230    5.3020 c3        1 13I     -0.081400
     17 C17        -1.8570    1.4020    5.3420 c3        1 13I     -0.156700
     18 C18        -1.3590    1.1150    3.9450 c         1 13I      0.630100
     19 C19        -0.3980   -0.0420    3.8410 c3        1 13I     -0.191100
     20 O20        -1.7520    1.7380    2.9510 o         1 13I     -0.589100
     21 C21        -0.9350    2.4050    6.0610 c3        1 13I      0.346900
     22 O22        -0.5410    3.4040    5.1500 oh        1 13I     -0.615800
     23 O23         0.2640    1.7360    6.4140 os        1 13I     -0.472600
     24 C24         0.7910    2.1230    7.6890 c3        1 13I      0.130400
     25 C25         2.0910    1.3790    7.8700 c3        1 13I     -0.100100
     26 CL          2.6440    0.0680    3.6540 cl        1 13I     -0.037400
     27 O27         3.5210   -0.4110    0.8110 oh        1 13I     -0.458100
     28 O28        -0.8690   -0.8110   -0.9610 oh        1 13I     -0.538100
     29 H02         1.8380   -0.7830   -1.0520 ha        1 13I      0.185000
     30 H28        -0.3510   -1.0420   -1.7510 ho        1 13I      0.468000
     31 H27         4.0080   -0.2540    1.6410 ho        1 13I      0.456000
     32 H191        0.3890    0.1160    4.6370 hc        1 13I      0.124700
     33 H192       -0.9580   -0.9840    4.1140 hc        1 13I      0.124700
     34 H09        -2.3430    0.5860   -0.1930 hn        1 13I      0.479800
     35 H101       -4.2230   -1.1270    0.1760 hx        1 13I      0.099200
     36 H102       -4.5520    0.5160   -0.5750 hx        1 13I      0.099200
     37 H111       -5.0340   -0.3640    2.3700 hc        1 13I      0.089700
     38 H112       -6.2630   -0.0070    1.0860 hc        1 13I      0.089700
     39 H12        -5.2020    2.4210    0.9950 ha        1 13I      0.126000
     40 H13        -5.4120    3.2970    3.2380 ha        1 13I      0.140000
     41 H141       -6.0160    2.0450    5.1250 hc        1 13I      0.064200
     42 H142       -6.2630    0.5490    4.1420 hc        1 13I      0.064200
     43 H151       -3.7590    0.2310    4.0290 hc        1 13I      0.040700
     44 H152       -4.4570    0.1420    5.6940 hc        1 13I      0.040700
     45 H161       -3.5850    2.2800    6.3220 hc        1 13I      0.070200
     46 H162       -3.3300    2.8040    4.6070 hc        1 13I      0.070200
     47 H17        -1.8220    0.4460    5.9390 hc        1 13I      0.089700
     48 H21        -1.4590    2.8540    6.9520 h2        1 13I      0.061700
     49 H22         0.2610    3.8210    5.4930 ho        1 13I      0.428000
     50 H241        0.0520    1.8520    8.4890 h1        1 13I      0.036700
     51 H242        0.9540    3.2340    7.6980 h1        1 13I      0.036700
     52 H251        1.9190    0.2760    7.8330 hc        1 13I      0.053033
     53 H252        2.5310    1.6460    8.8600 hc        1 13I      0.053033
     54 H253        2.8140    1.6500    7.0640 hc        1 13I      0.053033
     55 H092       -2.8910    1.3140    1.2140 hn        1 13I      0.479800
@<TRIPOS>BOND
     1    1    2 ar
     2    1    6 ar
     3    1   28 1
     4    2    3 ar
     5    2   29 1
     6    3    4 ar
     7    3   27 1
     8    4    5 ar
     9    4   26 1
    10    5    6 ar
    11    5   19 1
    12    6    7 1
    13    7    8 2
    14    7    9 1
    15    9   10 1
    16    9   34 1
    17    9   55 1
    18   10   11 1
    19   10   35 1
    20   10   36 1
    21   11   12 1
    22   11   37 1
    23   11   38 1
    24   12   13 2
    25   12   39 1
    26   13   14 1
    27   13   40 1
    28   14   15 1
    29   14   41 1
    30   14   42 1
    31   15   16 1
    32   15   43 1
    33   15   44 1
    34   16   17 1
    35   16   45 1
    36   16   46 1
    37   17   18 1
    38   17   21 1
    39   17   47 1
    40   18   19 1
    41   18   20 2
    42   19   32 1
    43   19   33 1
    44   21   22 1
    45   21   23 1
    46   21   48 1
    47   22   49 1
    48   23   24 1
    49   24   25 1
    50   24   50 1
    51   24   51 1
    52   25   52 1
    53   25   53 1
    54   25   54 1
    55   27   31 1
    56   28   30 1
@<TRIPOS>SUBSTRUCTURE
     1 13I         1 TEMP              0 ****  ****    0 ROOT
