@<TRIPOS>MOLECULE
13J
   71    75     1     0     0
SMALL
bcc


@<TRIPOS>ATOM
      1 C4          -0.1420    -0.3100    -0.3270 ca         1 13J      -0.101000
      2 C7           0.9910     0.4690     2.0940 ca         1 13J      -0.166000
      3 C6           1.2340    -0.4280    -0.1490 ca         1 13J      -0.166000
      4 C9          11.9530    -4.4800    -0.0220 ca         1 13J       0.696900
      5 C13         -0.9650     0.1930     0.6840 ca         1 13J      -0.098300
      6 C20          8.6920    -8.9530     2.1520 c3         1 13J      -0.103400
      7 C21          8.8490    -7.6020     1.4860 c3         1 13J      -0.098400
      8 C8           6.3170    -1.8730     1.0590 ca         1 13J      -0.053000
      9 C18          4.1670    -0.7480     0.5340 c          1 13J       0.678700
     10 C16         10.0470    -4.6730     1.1900 ca         1 13J       0.476800
     11 C19          9.4250    -8.2800     5.4660 c          1 13J       0.650100
     12 C26         -2.8930     1.7550     0.5670 c3         1 13J      -0.088100
     13 C1           7.4430     0.5140     1.9800 ca         1 13J      -0.141000
     14 C2           8.1990    -0.6570     1.9860 ca         1 13J      -0.102000
     15 C3           6.1260     0.5010     1.5200 ca         1 13J      -0.099000
     16 C5          -0.3780     0.5810     1.8940 ca         1 13J      -0.101000
     17 C10          9.6970    -3.3000     0.8610 ca         1 13J      -0.494500
     18 C11          7.6400    -1.8540     1.5190 ca         1 13J      -0.111900
     19 C12          5.5650    -0.6950     1.0640 ca         1 13J      -0.150600
     20 C14          1.8270    -0.0400     1.0690 ca         1 13J       0.061600
     21 C15          8.4270    -3.0810     1.5250 cc         1 13J       0.419500
     22 C17         10.5990    -2.5770     0.0210 ca         1 13J       0.755200
     23 C22          9.7760    -9.1900     3.2060 c3         1 13J       0.073000
     24 C23         10.0390    -6.8060     3.5580 c3         1 13J       0.068000
     25 C24          8.8790    -6.5010     2.5560 c3         1 13J       0.053000
     26 C25          9.0140    -7.5130     7.8040 c3         1 13J      -0.087100
     27 C27         -3.2050    -0.5520     1.4570 c3         1 13J      -0.088100
     28 C28          9.4150    -7.0940     6.4130 c3         1 13J      -0.146400
     29 C29         -2.4410     0.3100     0.4700 c3         1 13J      -0.020400
     30 N30         11.1930    -5.2830     0.7550 nb         1 13J      -0.742000
     31 N31         11.7420    -3.1970    -0.4250 nb         1 13J      -0.794000
     32 N32          8.0510    -4.2110     2.1770 nd         1 13J      -0.499100
     33 N33          8.9950    -5.1570     1.9950 na         1 13J       0.000200
     34 N34          9.9020    -8.1070     4.1630 n          1 13J      -0.458800
     35 N35         10.3510    -1.2600    -0.2990 nv         1 13J      -0.949500
     36 N36          3.2090    -0.1140     1.3120 ns         1 13J      -0.466100
     37 O37          3.9100    -1.3320    -0.5340 o          1 13J      -0.579100
     38 O38          9.0790    -9.4140     5.8510 o          1 13J      -0.598100
     39 H1          -0.5820    -0.6230    -1.2870 ha         1 13J       0.134000
     40 H2           1.4170     0.7820     3.0590 ha         1 13J       0.149000
     41 H3           1.8480    -0.8330    -0.9710 ha         1 13J       0.149000
     42 H4          12.8950    -4.9350    -0.4010 h5         1 13J       0.055100
     43 H5           8.7700    -9.7600     1.3780 hc         1 13J       0.055700
     44 H6           7.6780    -9.0330     2.6240 hc         1 13J       0.055700
     45 H7           7.9950    -7.4270     0.7810 hc         1 13J       0.064700
     46 H8           9.7970    -7.5860     0.8880 hc         1 13J       0.064700
     47 H9           5.8680    -2.8080     0.6860 ha         1 13J       0.167000
     48 H10         -2.6900     2.1640     1.5860 hc         1 13J       0.036033
     49 H11         -2.3520     2.3830    -0.1810 hc         1 13J       0.036033
     50 H12         -3.9890     1.8270     0.3680 hc         1 13J       0.036033
     51 H13          7.8860     1.4540     2.3430 ha         1 13J       0.143000
     52 H14          9.2330    -0.6450     2.3640 ha         1 13J       0.151000
     53 H15          5.5430     1.4340     1.5070 ha         1 13J       0.142000
     54 H16         -1.0110     0.9790     2.7030 ha         1 13J       0.134000
     55 H17          9.5590   -10.1490     3.7550 h1         1 13J       0.070700
     56 H18         10.7720    -9.2940     2.6870 h1         1 13J       0.070700
     57 H19         11.0170    -6.7950     2.9950 h1         1 13J       0.072200
     58 H20         10.0780    -6.0010     4.3400 h1         1 13J       0.072200
     59 H21          7.9000    -6.5390     3.1260 h1         1 13J       0.086700
     60 H22          9.7300    -8.2710     8.2060 hc         1 13J       0.046033
     61 H23          9.0060    -6.6250     8.4800 hc         1 13J       0.046033
     62 H24          7.9970    -7.9750     7.7960 hc         1 13J       0.046033
     63 H25         -2.8940    -1.6200     1.3630 hc         1 13J       0.036033
     64 H26         -3.0120    -0.2180     2.5040 hc         1 13J       0.036033
     65 H27         -4.3020    -0.4800     1.2580 hc         1 13J       0.036033
     66 H28          8.6920    -6.3280     6.0250 hc         1 13J       0.063700
     67 H29         10.4370    -6.6310     6.4380 hc         1 13J       0.063700
     68 H30         -2.6820    -0.0580    -0.5700 hc         1 13J       0.050700
     69 H31         10.9020    -0.8200    -0.9970 hn         1 13J       0.438300
     70 H32          9.4270    -0.9260    -0.1550 hn         1 13J       0.438300
     71 H33          3.5110     0.2550     2.1870 hn         1 13J       0.318500
@<TRIPOS>BOND
     1     1     3 ar  
     2     1     5 ar  
     3     1    39 1   
     4     2    16 ar  
     5     2    20 ar  
     6     2    40 1   
     7     3    20 ar  
     8     3    41 1   
     9     4    30 ar  
    10     4    31 ar  
    11     4    42 1   
    12     5    16 ar  
    13     5    29 1   
    14     6     7 1   
    15     6    23 1   
    16     6    43 1   
    17     6    44 1   
    18     7    25 1   
    19     7    45 1   
    20     7    46 1   
    21     8    18 ar  
    22     8    19 ar  
    23     8    47 1   
    24     9    19 1   
    25     9    36 1   
    26     9    37 2   
    27    10    17 ar  
    28    10    30 ar  
    29    10    33 1   
    30    11    28 1   
    31    11    34 1   
    32    11    38 2   
    33    12    29 1   
    34    12    48 1   
    35    12    49 1   
    36    12    50 1   
    37    13    14 ar  
    38    13    15 ar  
    39    13    51 1   
    40    14    18 ar  
    41    14    52 1   
    42    15    19 ar  
    43    15    53 1   
    44    16    54 1   
    45    17    21 1   
    46    17    22 ar  
    47    18    21 1   
    48    20    36 1   
    49    21    32 2   
    50    22    31 ar  
    51    22    35 1   
    52    23    34 1   
    53    23    55 1   
    54    23    56 1   
    55    24    25 1   
    56    24    34 1   
    57    24    57 1   
    58    24    58 1   
    59    25    33 1   
    60    25    59 1   
    61    26    28 1   
    62    26    60 1   
    63    26    61 1   
    64    26    62 1   
    65    27    29 1   
    66    27    63 1   
    67    27    64 1   
    68    27    65 1   
    69    28    66 1   
    70    28    67 1   
    71    29    68 1   
    72    32    33 1   
    73    35    69 1   
    74    35    70 1   
    75    36    71 1   
@<TRIPOS>SUBSTRUCTURE
     1 13J         1 TEMP              0 ****  ****    0 ROOT
