@<TRIPOS>MOLECULE
13J
   71    75     1     0     0
SMALL
bcc


@<TRIPOS>ATOM
      1 C4           0.0000     0.0000     0.0000 ca         1 13J      -0.078000
      2 C7           1.3740     0.0100     2.4040 ca         1 13J      -0.117500
      3 C6           1.3800     0.0000     0.0000 ca         1 13J      -0.117500
      4 C9          11.8690    -4.1210    -2.1210 ca         1 13J       0.707900
      5 C13         -0.6940     0.0060     1.1960 ca         1 13J      -0.098300
      6 C20          7.7830    -3.8850    -7.2410 c3         1 13J      -0.035400
      7 C21          7.7870    -3.5890    -5.7390 c3         1 13J      -0.043400
      8 C8           6.3240    -1.2140    -0.8300 ca         1 13J      -0.005000
      9 C18          4.1490    -0.6440     0.2370 c          1 13J       0.583700
     10 C16         10.0420    -3.0770    -3.0510 ca         1 13J       0.348800
     11 C19          9.9260    -1.3490    -8.4390 c          1 13J       0.589100
     12 C26         -2.7130    -1.2400     1.9170 c3         1 13J       0.005900
     13 C1           7.6920     0.2900     1.0700 ca         1 13J      -0.111000
     14 C2           8.3920    -0.3630     0.0730 ca         1 13J      -0.083000
     15 C3           6.3160     0.2100     1.1210 ca         1 13J      -0.078000
     16 C5          -0.0070     0.0110     2.3960 ca         1 13J      -0.078000
     17 C10          9.6880    -2.6030    -1.7740 ca         1 13J      -0.547500
     18 C11          7.7120    -1.1190    -0.8810 ca         1 13J      -0.110900
     19 C12          5.6220    -0.5480     0.1740 ca         1 13J      -0.161600
     20 C14          2.0740     0.0000     1.2040 ca         1 13J      -0.094400
     21 C15          8.4640    -1.8200    -1.9480 cc         1 13J       0.481500
     22 C17         10.4990    -2.9470    -0.6810 ca         1 13J       0.613200
     23 C22          7.8440    -2.5670    -8.0180 c3         1 13J       0.040000
     24 C23          9.1600    -1.5370    -6.1200 c3         1 13J       0.035000
     25 C24          9.0840    -2.8670    -5.3640 c3         1 13J      -0.048000
     26 C25         10.9240    -1.0080   -10.6830 c3         1 13J       0.020900
     27 C27         -2.7120     1.2590     1.9060 c3         1 13J       0.005900
     28 C28          9.7580    -1.6280    -9.9110 c3         1 13J      -0.101400
     29 C29         -2.2000     0.0060     1.1920 c3         1 13J       0.005600
     30 N30         11.1370    -3.8280    -3.1720 nb         1 13J      -0.687000
     31 N31         11.5710    -3.7010    -0.9040 nb         1 13J      -0.733000
     32 N32          8.1570    -1.8520    -3.2230 nd         1 13J      -0.618100
     33 N33          9.1030    -2.6120    -3.9220 na         1 13J       0.386200
     34 N34          9.0100    -1.8010    -7.5600 n          1 13J      -0.156800
     35 N35         10.1950    -2.5070     0.5930 nv         1 13J      -0.554500
     36 N36          3.4720    -0.0000     1.2080 ns         1 13J      -0.031100
     37 O37          3.5470    -1.3040    -0.5880 o          1 13J      -0.630100
     38 O38         10.8840    -0.7170    -8.0470 o          1 13J      -0.642100
     39 H1          -0.5410    -0.0020    -0.9390 ha         1 13J       0.108000
     40 H2           1.9110     0.0120     3.3440 ha         1 13J       0.121500
     41 H3           1.9230    -0.0060    -0.9380 ha         1 13J       0.121500
     42 H4          12.7520    -4.7340    -2.2570 h5         1 13J      -0.003900
     43 H5           6.8750    -4.4160    -7.5010 hc         1 13J       0.024200
     44 H6           8.6460    -4.4910    -7.4910 hc         1 13J       0.024200
     45 H7           6.9410    -2.9580    -5.4950 hc         1 13J       0.033200
     46 H8           7.7220    -4.5190    -5.1890 hc         1 13J       0.033200
     47 H9           5.7910    -1.7990    -1.5690 ha         1 13J       0.140000
     48 H10         -3.7760    -1.3500     1.7390 hc         1 13J       0.004700
     49 H11         -2.5350    -1.1380     2.9810 hc         1 13J       0.004700
     50 H12         -2.1920    -2.1140     1.5460 hc         1 13J       0.004700
     51 H13          8.2260     0.8780     1.8070 ha         1 13J       0.109000
     52 H14          9.4720    -0.2920     0.0370 ha         1 13J       0.118000
     53 H15          5.7720     0.7260     1.9030 ha         1 13J       0.102000
     54 H16         -0.5530     0.0170     3.3320 ha         1 13J       0.108000
     55 H17          7.9400    -2.7750    -9.0770 h1         1 13J       0.027700
     56 H18          6.9410    -1.9970    -7.8350 h1         1 13J       0.027700
     57 H19         10.1200    -1.0700    -5.9350 h1         1 13J       0.050200
     58 H20          8.3620    -0.8850    -5.7870 h1         1 13J       0.050200
     59 H21          9.9300    -3.4850    -5.6380 h1         1 13J       0.069700
     60 H22         10.9420     0.0620   -10.5130 hc         1 13J       0.009367
     61 H23         11.8550    -1.4440   -10.3410 hc         1 13J       0.009367
     62 H24         10.8010    -1.2040   -11.7410 hc         1 13J       0.009367
     63 H25         -2.5420     1.1620     2.9720 hc         1 13J       0.004700
     64 H26         -2.1830     2.1280     1.5340 hc         1 13J       0.004700
     65 H27         -3.7730     1.3740     1.7190 hc         1 13J       0.004700
     66 H28          9.7430    -2.6980   -10.0760 hc         1 13J       0.027200
     67 H29          8.8260    -1.1960   -10.2560 hc         1 13J       0.027200
     68 H30         -2.5580     0.0020     0.1690 hc         1 13J       0.028700
     69 H31         10.9260    -2.1930     1.2010 hn         1 13J       0.283300
     70 H32          9.2400    -2.4460     0.8850 hn         1 13J       0.283300
     71 H33          3.9670     0.3830     1.9890 hn         1 13J       0.170500
@<TRIPOS>BOND
     1     1     3 ar  
     2     1     5 ar  
     3     1    39 1   
     4     2    16 ar  
     5     2    20 ar  
     6     2    40 1   
     7     3    20 ar  
     8     3    41 1   
     9     4    30 ar  
    10     4    31 ar  
    11     4    42 1   
    12     5    16 ar  
    13     5    29 1   
    14     6     7 1   
    15     6    23 1   
    16     6    43 1   
    17     6    44 1   
    18     7    25 1   
    19     7    45 1   
    20     7    46 1   
    21     8    18 ar  
    22     8    19 ar  
    23     8    47 1   
    24     9    19 1   
    25     9    36 1   
    26     9    37 2   
    27    10    17 ar  
    28    10    30 ar  
    29    10    33 1   
    30    11    28 1   
    31    11    34 1   
    32    11    38 2   
    33    12    29 1   
    34    12    48 1   
    35    12    49 1   
    36    12    50 1   
    37    13    14 ar  
    38    13    15 ar  
    39    13    51 1   
    40    14    18 ar  
    41    14    52 1   
    42    15    19 ar  
    43    15    53 1   
    44    16    54 1   
    45    17    21 1   
    46    17    22 ar  
    47    18    21 1   
    48    20    36 1   
    49    21    32 2   
    50    22    31 ar  
    51    22    35 1   
    52    23    34 1   
    53    23    55 1   
    54    23    56 1   
    55    24    25 1   
    56    24    34 1   
    57    24    57 1   
    58    24    58 1   
    59    25    33 1   
    60    25    59 1   
    61    26    28 1   
    62    26    60 1   
    63    26    61 1   
    64    26    62 1   
    65    27    29 1   
    66    27    63 1   
    67    27    64 1   
    68    27    65 1   
    69    28    66 1   
    70    28    67 1   
    71    29    68 1   
    72    32    33 1   
    73    35    69 1   
    74    35    70 1   
    75    36    71 1   
@<TRIPOS>SUBSTRUCTURE
     1 13J         1 TEMP              0 ****  ****    0 ROOT
