@<TRIPOS>MOLECULE
13K
   53    56     1     0     0
SMALL
bcc


@<TRIPOS>ATOM
      1 N01          0.0150     0.0340     0.2000 nv         1 13K      -0.939500
      2 C02          1.3980     0.0500     0.1160 ca         1 13K       0.887900
      3 N03          2.1250    -0.1510     1.2920 nb         1 13K      -0.761000
      4 C04          3.4550    -0.0450     1.1910 ca         1 13K       0.502200
      5 N05          1.9740     0.3080    -1.1300 nb         1 13K      -0.761000
      6 C06          3.3080     0.3980    -1.1610 ca         1 13K       0.502200
      7 C07          4.1270     0.2430    -0.0180 cp         1 13K      -0.461100
      8 C08          5.5850     0.3600    -0.0790 cp         1 13K       0.578800
      9 C09          6.2790     0.8480     1.0420 ca         1 13K      -0.464600
     10 N10          6.2120    -0.0130    -1.2210 nb         1 13K      -0.778000
     11 C11          7.5920     0.1170    -1.2460 ca         1 13K       0.899900
     12 N12          8.2600    -0.1420    -2.4780 nh         1 13K      -0.719300
     13 C13          9.6940    -0.3930    -2.4050 c3         1 13K       0.161800
     14 C14         10.3430    -0.5240    -3.7890 c3         1 13K       0.118400
     15 O15          9.6540    -1.4520    -4.6160 os         1 13K      -0.412600
     16 C16          8.2890    -1.0930    -4.7800 c3         1 13K       0.118400
     17 C17          7.5560    -0.9840    -3.4370 c3         1 13K       0.161800
     18 N18          8.3660     0.5450    -0.1800 nb         1 13K      -0.793000
     19 C19          7.7030     0.9320     0.9480 ca         1 13K       0.708200
     20 N20          8.4020     1.4710     2.0390 nu         1 13K      -0.720300
     21 C21          9.8110     1.4240     2.1560 ca         1 13K       0.132600
     22 C22         10.6470     1.9750     1.1710 ca         1 13K      -0.110000
     23 C23         12.0310     1.9870     1.3450 ca         1 13K      -0.169000
     24 C24         10.3890     0.8860     3.3330 ca         1 13K      -0.219000
     25 C25         11.7690     0.9110     3.5070 ca         1 13K       0.119100
     26 O26         12.4290     0.4260     4.6190 os         1 13K      -0.302900
     27 C27         11.6180    -0.1900     5.6110 c3         1 13K       0.109700
     28 C28         12.6060     1.4640     2.5010 ca         1 13K       0.092100
     29 O29         13.9590     1.4290     2.7710 os         1 13K      -0.302900
     30 C30         14.8030     2.0100     1.7840 c3         1 13K       0.110700
     31 HN01        -0.4040    -0.3140     1.0280 hn         1 13K       0.441300
     32 HN0A        -0.5080    -0.0010    -0.6420 hn         1 13K       0.441300
     33 H04          4.0150    -0.2140     2.1300 h4         1 13K       0.036600
     34 H06          3.7480     0.6040    -2.1560 h4         1 13K       0.036600
     35 H09          5.7440     1.1730     1.9410 ha         1 13K       0.151000
     36 H13          9.9020    -1.3330    -1.8170 h1         1 13K       0.062950
     37 H13A        10.1910     0.4710    -1.8800 h1         1 13K       0.062950
     38 H14         10.3900     0.4730    -4.3010 h1         1 13K       0.057200
     39 H14A        11.3740    -0.9520    -3.6820 h1         1 13K       0.057200
     40 H16          7.8470    -1.9290    -5.3830 h1         1 13K       0.057200
     41 H16A         8.2190    -0.1280    -5.3490 h1         1 13K       0.057200
     42 H17          7.4090    -2.0210    -3.0190 h1         1 13K       0.062950
     43 H17A         6.5420    -0.5380    -3.6420 h1         1 13K       0.062950
     44 HN20         7.9140     1.3830     2.9060 hn         1 13K       0.425800
     45 H22         10.2230     2.4000     0.2480 ha         1 13K       0.156000
     46 H23         12.6610     2.4220     0.5560 ha         1 13K       0.142000
     47 H24          9.7470     0.4520     4.1130 ha         1 13K       0.137000
     48 H27         11.0690    -1.0670     5.1880 h1         1 13K       0.043700
     49 H27A        10.9020     0.5460     6.0500 h1         1 13K       0.043700
     50 H27B        12.3610    -0.5230     6.3800 h1         1 13K       0.043700
     51 H30         14.5660     3.0920     1.6450 h1         1 13K       0.043700
     52 H30A        15.8290     1.8830     2.2140 h1         1 13K       0.043700
     53 H30B        14.7130     1.4620     0.8140 h1         1 13K       0.043700
@<TRIPOS>BOND
     1     1     2 1   
     2     1    31 1   
     3     1    32 1   
     4     2     3 ar  
     5     2     5 ar  
     6     3     4 ar  
     7     4     7 ar  
     8     4    33 1   
     9     5     6 ar  
    10     6     7 ar  
    11     6    34 1   
    12     7     8 1   
    13     8     9 ar  
    14     8    10 ar  
    15     9    19 ar  
    16     9    35 1   
    17    10    11 ar  
    18    11    12 1   
    19    11    18 ar  
    20    12    13 1   
    21    12    17 1   
    22    13    14 1   
    23    13    36 1   
    24    13    37 1   
    25    14    15 1   
    26    14    38 1   
    27    14    39 1   
    28    15    16 1   
    29    16    17 1   
    30    16    40 1   
    31    16    41 1   
    32    17    42 1   
    33    17    43 1   
    34    18    19 ar  
    35    19    20 1   
    36    20    21 1   
    37    20    44 1   
    38    21    22 ar  
    39    21    24 ar  
    40    22    23 ar  
    41    22    45 1   
    42    23    28 ar  
    43    23    46 1   
    44    24    25 ar  
    45    24    47 1   
    46    25    26 1   
    47    25    28 ar  
    48    26    27 1   
    49    27    48 1   
    50    27    49 1   
    51    27    50 1   
    52    28    29 1   
    53    29    30 1   
    54    30    51 1   
    55    30    52 1   
    56    30    53 1   
@<TRIPOS>SUBSTRUCTURE
     1 13K         1 TEMP              0 ****  ****    0 ROOT
