@<TRIPOS>MOLECULE
molecule
   53    56     1     0     0
SMALL
bcc


@<TRIPOS>ATOM
      1 N01          0.0000     0.0000     0.0000 nv         1 13K      -1.001500
      2 C02          1.3830     0.0000     0.0000 ca         1 13K       0.948900
      3 N03          2.0260     0.0000     1.1590 nb         1 13K      -0.790000
      4 C04          3.3470    -0.0000     1.2020 ca         1 13K       0.525200
      5 N05          2.0280    -0.0060    -1.1580 nb         1 13K      -0.790000
      6 C06          3.3470    -0.0070    -1.1980 ca         1 13K       0.525200
      7 C07          4.0630    -0.0010     0.0020 cp         1 13K      -0.464100
      8 C08          5.5460    -0.0010     0.0020 cp         1 13K       0.591800
      9 C09          6.2530     0.0030    -1.1970 ca         1 13K      -0.470600
     10 N10          6.2210    -0.0010     1.1530 nb         1 13K      -0.800000
     11 C11          7.5450     0.0000     1.1600 ca         1 13K       0.913900
     12 N12          8.2110     0.0010     2.3740 nh         1 13K      -0.680300
     13 C13          9.6670     0.0010     2.1760 c3         1 13K       0.137300
     14 C14         10.3620     0.0630     3.5390 c3         1 13K       0.133400
     15 O15          9.9260    -1.0380     4.3410 os         1 13K      -0.426600
     16 C16          8.5110    -1.0690     4.5550 c3         1 13K       0.133400
     17 C17          7.7970    -1.1420     3.2030 c3         1 13K       0.137300
     18 N18          8.2500    -0.0020     0.0390 nb         1 13K      -0.842000
     19 C19          7.6460     0.0040    -1.1460 ca         1 13K       0.752200
     20 N20          8.3930     0.0080    -2.3150 nu         1 13K      -0.767300
     21 C21          9.7860    -0.1160    -2.2560 ca         1 13K       0.151600
     22 C22         10.3690    -0.9680    -1.3270 ca         1 13K      -0.123000
     23 C23         11.7440    -1.0910    -1.2670 ca         1 13K      -0.178000
     24 C24         10.5850     0.6080    -3.1300 ca         1 13K      -0.221000
     25 C25         11.9620     0.4840    -3.0710 ca         1 13K       0.132100
     26 O26         12.7470     1.1930    -3.9270 os         1 13K      -0.310900
     27 C27         12.0830     2.0460    -4.8610 c3         1 13K       0.126700
     28 C28         12.5440    -0.3650    -2.1350 ca         1 13K       0.101100
     29 O29         13.8980    -0.4870    -2.0760 os         1 13K      -0.313900
     30 C30         14.4250    -1.3780    -1.0900 c3         1 13K       0.127700
     31 HN01        -0.5000     0.4970     0.7100 hn         1 13K       0.450800
     32 HN0A        -0.5000    -0.4840    -0.7190 hn         1 13K       0.450800
     33 H04          3.8660     0.0020     2.1530 h4         1 13K       0.042600
     34 H06          3.8670    -0.0100    -2.1490 h4         1 13K       0.042600
     35 H09          5.7330     0.0070    -2.1480 ha         1 13K       0.140000
     36 H13          9.9510     0.8640     1.5870 h1         1 13K       0.062200
     37 H13A         9.9610    -0.9070     1.6620 h1         1 13K       0.062200
     38 H14         10.1050     0.9930     4.0320 h1         1 13K       0.057200
     39 H14A        11.4350     0.0050     3.4000 h1         1 13K       0.057200
     40 H16          8.2060    -0.1700     5.0760 h1         1 13K       0.057200
     41 H16A         8.2550    -1.9410     5.1450 h1         1 13K       0.057200
     42 H17          6.7260    -1.1060     3.3580 h1         1 13K       0.062200
     43 H17A         8.0650    -2.0650     2.7030 h1         1 13K       0.062200
     44 HN20         7.9330     0.0640    -3.2020 hn         1 13K       0.457800
     45 H22          9.7450    -1.5360    -0.6480 ha         1 13K       0.153000
     46 H23         12.1970    -1.7540    -0.5400 ha         1 13K       0.143000
     47 H24         10.1290     1.2310    -3.8910 ha         1 13K       0.140000
     48 H27         12.8180     2.6120    -5.4200 h1         1 13K       0.040033
     49 H27A        11.4950     1.4440    -5.5450 h1         1 13K       0.040033
     50 H27B        11.4310     2.7270    -4.3290 h1         1 13K       0.040033
     51 H30         13.9690    -2.3530    -1.2030 h1         1 13K       0.040367
     52 H30A        15.4980    -1.4640    -1.2190 h1         1 13K       0.040367
     53 H30B        14.2100    -0.9900    -0.1010 h1         1 13K       0.040367
@<TRIPOS>BOND
     1     1     2 1
     2     1    31 1
     3     1    32 1
     4     3     2 ar
     5     2     5 ar
     6     3     4 ar
     7     4     7 ar
     8     4    33 1
     9     5     6 ar
    10     7     6 ar
    11     6    34 1
    12     7     8 1
    13     9     8 ar
    14     8    10 ar
    15     9    19 ar
    16     9    35 1
    17    10    11 ar
    18    18    11 ar
    19    11    12 1
    20    12    13 1
    21    12    17 1
    22    13    14 1
    23    13    36 1
    24    13    37 1
    25    14    15 1
    26    14    38 1
    27    14    39 1
    28    15    16 1
    29    17    16 1
    30    16    40 1
    31    16    41 1
    32    17    42 1
    33    17    43 1
    34    19    18 ar
    35    20    19 1
    36    20    21 1
    37    20    44 1
    38    24    21 ar
    39    21    22 ar
    40    22    23 ar
    41    22    45 1
    42    28    23 ar
    43    23    46 1
    44    24    25 ar
    45    24    47 1
    46    26    25 1
    47    25    28 ar
    48    27    26 1
    49    27    48 1
    50    27    49 1
    51    27    50 1
    52    28    29 1
    53    29    30 1
    54    30    51 1
    55    30    52 1
    56    30    53 1
@<TRIPOS>SUBSTRUCTURE
     1 13K         1 TEMP              0 ****  ****    0 ROOT
