@<TRIPOS>MOLECULE
molecule
   71    75     1     0     0
SMALL
bcc


@<TRIPOS>ATOM
      1 C4           0.0000     0.0000     0.0000 ca         1 13L      -0.108500
      2 C7           1.3750    -0.0010     2.4050 ca         1 13L      -0.143000
      3 C6           1.3810     0.0000     0.0000 ca         1 13L      -0.143000
      4 C9           8.0940    -5.9850     5.8650 ca         1 13L       0.758900
      5 C13         -0.6930    -0.0000     1.1970 ca         1 13L      -0.091300
      6 C20         12.1200    -1.4660     8.3600 c3         1 13L      -0.099400
      7 C21         10.9220    -1.5660     7.4140 c3         1 13L      -0.095400
      8 C8           6.3130    -1.4750     3.0800 ca         1 13L      -0.056000
      9 C18          4.1440    -0.6770     2.1590 c          1 13L       0.673700
     10 C16          9.1090    -3.9480     5.5260 ca         1 13L       0.539800
     11 C19         14.6260    -3.0580     6.4500 c          1 13L       0.663100
     12 C26         -2.7130    -1.2490     1.9120 c3         1 13L      -0.085100
     13 C1           7.6920    -0.2510     0.9960 ca         1 13L      -0.139000
     14 C2           8.3860    -0.9480     1.9670 ca         1 13L      -0.076000
     15 C3           6.3160    -0.1690     1.0500 ca         1 13L      -0.099000
     16 C5          -0.0060    -0.0010     2.3970 ca         1 13L      -0.108500
     17 C10          8.1320    -3.6460     4.5580 ca         1 13L      -0.535500
     18 C11          7.7010    -1.5630     3.0140 ca         1 13L      -0.108900
     19 C12          5.6170    -0.7760     2.0960 ca         1 13L      -0.156600
     20 C14          2.0740     0.0000     1.2040 ca         1 13L       0.046600
     21 C15          8.4490    -2.3090     4.0540 cc         1 13L       0.443500
     22 C17          7.1370    -4.5990     4.2870 ca         1 13L       0.794200
     23 C22         13.3960    -1.2440     7.5420 c3         1 13L       0.098000
     24 C23         12.3720    -2.5550     5.6370 c3         1 13L       0.094000
     25 C24         11.1080    -2.7610     6.4760 c3         1 13L       0.073000
     26 C25         16.9170    -3.7750     7.0710 c3         1 13L      -0.077100
     27 C27         -2.7120     1.2490     1.9140 c3         1 13L      -0.085100
     28 C28         15.7800    -2.7990     7.3820 c3         1 13L      -0.158400
     29 C29         -2.2000     0.0010     1.1930 c3         1 13L      -0.029400
     30 N30          9.0470    -5.1240     6.1490 nb         1 13L      -0.805000
     31 N31          7.1610    -5.7440     4.9610 nb         1 13L      -0.835000
     32 N32          9.5170    -1.8930     4.6930 nd         1 13L      -0.497100
     33 N33          9.9460    -2.8740     5.5920 na         1 13L      -0.025800
     34 N34         13.5050    -2.3130     6.5390 n          1 13L      -0.496800
     35 N35          6.1560    -4.3510     3.3470 nv         1 13L      -1.007500
     36 N36          3.4720     0.0000     1.2070 ns         1 13L      -0.469100
     37 O37          3.5380    -1.2070     3.0720 o          1 13L      -0.594100
     38 O38         14.7040    -3.9370     5.6180 o          1 13L      -0.604100
     39 H1          -0.5410     0.0000    -0.9390 ha         1 13L       0.134500
     40 H2           1.9120    -0.0020     3.3450 ha         1 13L       0.146000
     41 H3           1.9230     0.0010    -0.9380 ha         1 13L       0.146000
     42 H4           8.0750    -6.9320     6.3910 h5         1 13L       0.062100
     43 H5          11.9770    -0.6320     9.0370 hc         1 13L       0.054200
     44 H6          12.2100    -2.3860     8.9260 hc         1 13L       0.054200
     45 H7          10.8510    -0.6570     6.8280 hc         1 13L       0.060700
     46 H8          10.0170    -1.7000     7.9930 hc         1 13L       0.060700
     47 H9           5.7770    -1.9520     3.8920 ha         1 13L       0.174000
     48 H10         -2.5400    -1.1490     2.9770 hc         1 13L       0.036533
     49 H11         -3.7740    -1.3610     1.7280 hc         1 13L       0.036533
     50 H12         -2.1870    -2.1200     1.5410 hc         1 13L       0.036533
     51 H13          8.2300     0.2230     0.1840 ha         1 13L       0.140000
     52 H14          9.4670    -1.0120     1.9170 ha         1 13L       0.150000
     53 H15          5.7770     0.3770     0.2850 ha         1 13L       0.127000
     54 H16         -0.5520    -0.0010     3.3320 ha         1 13L       0.134500
     55 H17         14.2570    -1.2740     8.1980 h1         1 13L       0.052200
     56 H18         13.3440    -0.2840     7.0430 h1         1 13L       0.052200
     57 H19         12.2390    -1.6990     4.9860 h1         1 13L       0.076700
     58 H20         12.5630    -3.4420     5.0450 h1         1 13L       0.076700
     59 H21         11.2100    -3.6660     7.0640 h1         1 13L       0.099700
     60 H22         17.2370    -3.6410     6.0450 hc         1 13L       0.044033
     61 H23         17.7490    -3.5830     7.7370 hc         1 13L       0.044033
     62 H24         16.5690    -4.7910     7.2120 hc         1 13L       0.044033
     63 H25         -2.1830     2.1210     1.5460 hc         1 13L       0.036533
     64 H26         -2.5420     1.1470     2.9790 hc         1 13L       0.036533
     65 H27         -3.7730     1.3650     1.7260 hc         1 13L       0.036533
     66 H28         15.4550    -2.9380     8.4060 hc         1 13L       0.058200
     67 H29         16.1300    -1.7820     7.2490 hc         1 13L       0.058200
     68 H30         -2.5590     0.0020     0.1710 hc         1 13L       0.052700
     69 H31          6.3710    -3.8130     2.5310 hn         1 13L       0.449800
     70 H32          5.2480    -4.7580     3.4520 hn         1 13L       0.449800
     71 H33          3.9720     0.4150     0.4450 hn         1 13L       0.323500
@<TRIPOS>BOND
     1    27    29 1
     2    29    12 1
     3    29     5 1
     4     1     5 ar
     5     1     3 ar
     6     5    16 ar
     7     3    20 ar
     8    16     2 ar
     9    20     2 ar
    10    20    36 1
    11    36     9 1
    12    15    13 ar
    13    15    19 ar
    14     9    19 1
    15     9    37 2
    16    13    14 ar
    17    19     8 ar
    18    14    18 ar
    19     8    18 ar
    20    18    21 1
    21    26    28 1
    22    21    32 2
    23    21    17 1
    24    32    33 1
    25    23    34 1
    26    23     6 1
    27    24    34 1
    28    24    25 1
    29    34    11 1
    30    35    22 1
    31    28    11 1
    32    17    22 ar
    33    17    10 ar
    34    11    38 2
    35    33    25 1
    36    33    10 1
    37     6     7 1
    38     7    25 1
    39    22    31 ar
    40    10    30 ar
    41    31     4 ar
    42    30     4 ar
    43     1    39 1
    44     2    40 1
    45     3    41 1
    46     4    42 1
    47     6    43 1
    48     6    44 1
    49     7    45 1
    50     7    46 1
    51     8    47 1
    52    12    48 1
    53    12    49 1
    54    12    50 1
    55    13    51 1
    56    14    52 1
    57    15    53 1
    58    16    54 1
    59    23    55 1
    60    23    56 1
    61    24    57 1
    62    24    58 1
    63    25    59 1
    64    26    60 1
    65    26    61 1
    66    26    62 1
    67    27    63 1
    68    27    64 1
    69    27    65 1
    70    28    66 1
    71    28    67 1
    72    29    68 1
    73    35    69 1
    74    35    70 1
    75    36    71 1
@<TRIPOS>SUBSTRUCTURE
     1 13L         1 TEMP              0 ****  ****    0 ROOT
