@<TRIPOS>MOLECULE
13L
   71    75     1     0     0
SMALL
bcc


@<TRIPOS>ATOM
      1 C4          -0.0650    -0.7610    -0.0390 ca         1 13L      -0.101500
      2 C7           1.3470     0.2270     2.1580 ca         1 13L      -0.166500
      3 C6           1.3190    -0.6600    -0.1020 ca         1 13L      -0.166500
      4 C9          12.0790     4.1500     3.1320 ca         1 13L       0.696900
      5 C13         -0.7640    -0.3730     1.1090 ca         1 13L      -0.098300
      6 C20          8.2320     8.5000     0.4240 c3         1 13L      -0.104400
      7 C21          8.1880     7.0900     0.9720 c3         1 13L      -0.096400
      8 C8           6.5410     1.6270     1.4770 ca         1 13L      -0.054000
      9 C18          4.3360     0.5240     1.7690 c          1 13L       0.679700
     10 C16         10.3020     4.3770     1.7460 ca         1 13L       0.477800
     11 C19         10.2440     8.1160    -2.4360 c          1 13L       0.655100
     12 C26         -2.8990     0.8730     1.3470 c3         1 13L      -0.088100
     13 C1           7.7240    -0.7620     0.6350 ca         1 13L      -0.141000
     14 C2           8.4900     0.4000     0.7200 ca         1 13L      -0.101000
     15 C3           6.3690    -0.7380     0.9640 ca         1 13L      -0.100000
     16 C5          -0.0390     0.1190     2.1990 ca         1 13L      -0.101500
     17 C10          9.9060     3.0040     2.0190 ca         1 13L      -0.491500
     18 C11          7.9020     1.5970     1.1490 ca         1 13L      -0.108900
     19 C12          5.7790     0.4580     1.3810 ca         1 13L      -0.151600
     20 C14          2.0540    -0.1620     1.0020 ca         1 13L       0.063600
     21 C15          8.7000     2.8140     1.2370 cc         1 13L       0.415500
     22 C17         10.7200     2.2600     2.9280 ca         1 13L       0.754200
     23 C22          8.1650     8.5010    -1.1060 c3         1 13L       0.085000
     24 C23          9.1560     6.2870    -1.2110 c3         1 13L       0.072000
     25 C24          9.3100     6.2520     0.3410 c3         1 13L       0.053000
     26 C25          9.2930     9.8060    -4.0210 c3         1 13L      -0.092100
     27 C27         -2.6920    -1.4390     2.2570 c3         1 13L      -0.088100
     28 C28         10.2840     9.5550    -2.9140 c3         1 13L      -0.147400
     29 C29         -2.2550    -0.4870     1.1590 c3         1 13L      -0.019400
     30 N30         11.4030     4.9730     2.3000 nb         1 13L      -0.735000
     31 N31         11.8200     2.8620     3.4900 nb         1 13L      -0.795000
     32 N32          8.4000     3.9590     0.5710 nd         1 13L      -0.501100
     33 N33          9.3420     4.8820     0.8460 na         1 13L       0.004200
     34 N34          9.1420     7.6380    -1.7280 n          1 13L      -0.462800
     35 N35         10.4330     0.9400     3.2000 nv         1 13L      -0.950500
     36 N36          3.4540    -0.0980     0.8970 ns         1 13L      -0.466100
     37 O37          3.9780     1.1080     2.8080 o          1 13L      -0.581100
     38 O38         11.1750     7.3410    -2.7340 o          1 13L      -0.600100
     39 H1          -0.6140    -1.1510    -0.9100 ha         1 13L       0.134000
     40 H2           1.8810     0.6230     3.0380 ha         1 13L       0.149500
     41 H3           1.8350    -0.9720    -1.0220 ha         1 13L       0.149500
     42 H4          12.9830     4.5900     3.6070 h5         1 13L       0.054100
     43 H5           7.3600     9.0830     0.8170 hc         1 13L       0.053700
     44 H6           9.1680     9.0140     0.7670 hc         1 13L       0.053700
     45 H7           7.1920     6.6270     0.7450 hc         1 13L       0.060200
     46 H8           8.3070     7.1160     2.0870 hc         1 13L       0.060200
     47 H9           6.0680     2.5620     1.8180 ha         1 13L       0.166000
     48 H10         -2.6020     1.5620     0.5210 hc         1 13L       0.036200
     49 H11         -2.5840     1.3270     2.3180 hc         1 13L       0.036200
     50 H12         -4.0110     0.7720     1.3470 hc         1 13L       0.036200
     51 H13          8.1900    -1.7010     0.3020 ha         1 13L       0.143000
     52 H14          9.5560     0.3810     0.4420 ha         1 13L       0.153000
     53 H15          5.7770    -1.6650     0.9060 ha         1 13L       0.141000
     54 H16         -0.5730     0.4300     3.1110 ha         1 13L       0.134000
     55 H17          7.1440     8.1330    -1.4200 h1         1 13L       0.054700
     56 H18          8.2740     9.5570    -1.4760 h1         1 13L       0.054700
     57 H19          8.1780     5.8030    -1.4960 h1         1 13L       0.083200
     58 H20          9.9990     5.7090    -1.6840 h1         1 13L       0.083200
     59 H21         10.3070     6.7100     0.6160 h1         1 13L       0.098700
     60 H22          9.4910     9.1250    -4.8850 hc         1 13L       0.044033
     61 H23          8.2450     9.6370    -3.6750 hc         1 13L       0.044033
     62 H24          9.3820    10.8620    -4.3760 hc         1 13L       0.044033
     63 H25         -2.3700    -1.0600     3.2570 hc         1 13L       0.036200
     64 H26         -2.2430    -2.4480     2.0990 hc         1 13L       0.036200
     65 H27         -3.8040    -1.5370     2.2560 hc         1 13L       0.036200
     66 H28         11.3260     9.7410    -3.2940 hc         1 13L       0.068700
     67 H29         10.1130    10.2570    -2.0570 hc         1 13L       0.068700
     68 H30         -2.6150    -0.9070     0.1740 hc         1 13L       0.048700
     69 H31          9.5240     0.6180     2.9660 hn         1 13L       0.437300
     70 H32         10.9120     0.4840     3.9390 hn         1 13L       0.437300
     71 H33          3.8380    -0.4680     0.0550 hn         1 13L       0.319500
@<TRIPOS>BOND
     1     1     3 ar  
     2     1     5 ar  
     3     1    39 1   
     4     2    16 ar  
     5     2    20 ar  
     6     2    40 1   
     7     3    20 ar  
     8     3    41 1   
     9     4    30 ar  
    10     4    31 ar  
    11     4    42 1   
    12     5    16 ar  
    13     5    29 1   
    14     6     7 1   
    15     6    23 1   
    16     6    43 1   
    17     6    44 1   
    18     7    25 1   
    19     7    45 1   
    20     7    46 1   
    21     8    18 ar  
    22     8    19 ar  
    23     8    47 1   
    24     9    19 1   
    25     9    36 1   
    26     9    37 2   
    27    10    17 ar  
    28    10    30 ar  
    29    10    33 1   
    30    11    28 1   
    31    11    34 1   
    32    11    38 2   
    33    12    29 1   
    34    12    48 1   
    35    12    49 1   
    36    12    50 1   
    37    13    14 ar  
    38    13    15 ar  
    39    13    51 1   
    40    14    18 ar  
    41    14    52 1   
    42    15    19 ar  
    43    15    53 1   
    44    16    54 1   
    45    17    21 1   
    46    17    22 ar  
    47    18    21 1   
    48    20    36 1   
    49    21    32 2   
    50    22    31 ar  
    51    22    35 1   
    52    23    34 1   
    53    23    55 1   
    54    23    56 1   
    55    24    25 1   
    56    24    34 1   
    57    24    57 1   
    58    24    58 1   
    59    25    33 1   
    60    25    59 1   
    61    26    28 1   
    62    26    60 1   
    63    26    61 1   
    64    26    62 1   
    65    27    29 1   
    66    27    63 1   
    67    27    64 1   
    68    27    65 1   
    69    28    66 1   
    70    28    67 1   
    71    29    68 1   
    72    32    33 1   
    73    35    69 1   
    74    35    70 1   
    75    36    71 1   
@<TRIPOS>SUBSTRUCTURE
     1 13L         1 TEMP              0 ****  ****    0 ROOT
