@<TRIPOS>MOLECULE
13M
   62    66     1     0     0
SMALL
bcc


@<TRIPOS>ATOM
      1 C1           5.1370     0.5230     0.6420 c          1 13M       0.908600
      2 O1           6.3600     0.1600     0.6670 o          1 13M      -0.870300
      3 C2           4.0970    -0.2470     1.4530 c3         1 13M      -0.142700
      4 O2           4.8170     1.5070    -0.1040 o          1 13M      -0.870300
      5 C3           3.3240     0.6940     2.3620 c3         1 13M      -0.069400
      6 O3           6.7180    -3.0130    -3.2900 os         1 13M      -0.337900
      7 C4           4.1620     1.1580     3.5250 c3         1 13M      -0.090100
      8 C5           3.1180    -1.0100     0.5490 c3         1 13M      -0.019100
      9 C6           3.8390    -1.6690    -0.5750 ca         1 13M      -0.094300
     10 C7           4.3490    -0.8390    -1.5800 ca         1 13M      -0.077000
     11 C8           5.3890    -1.2740    -2.4030 ca         1 13M      -0.183300
     12 C9           5.7240    -2.6420    -2.4060 ca         1 13M       0.150100
     13 C10          5.0690    -3.5250    -1.5350 ca         1 13M      -0.204000
     14 C11          4.1720    -3.0260    -0.5900 ca         1 13M      -0.065000
     15 C12          7.1540    -4.3670    -3.2150 c3         1 13M       0.114700
     16 C15          6.2270    -0.2330    -3.0690 c3         1 13M       0.197100
     17 C17          8.6190     3.9470    -2.4500 ca         1 13M       0.048000
     18 C19          8.7970     5.1670    -1.7420 ca         1 13M      -0.043000
     19 C22          7.6480     2.9690    -0.4310 ca         1 13M      -0.060000
     20 C85         10.3310     7.3450    -4.3820 ca         1 13M      -0.096000
     21 C86         10.5070     8.5310    -3.6750 ca         1 13M      -0.132000
     22 C87          8.0440     2.8480    -1.7730 ca         1 13M      -0.195600
     23 C88         10.1260     8.6230    -2.3380 ca         1 13M      -0.097000
     24 C89          9.5580     7.5220    -1.6850 ca         1 13M      -0.046000
     25 C91          9.1530     7.5870    -0.3050 ca         1 13M      -0.090000
     26 C92          8.6040     6.5140     0.3160 ca         1 13M      -0.130000
     27 C93          9.0210     3.9060    -3.8320 ca         1 13M      -0.146000
     28 C94          9.5650     4.9840    -4.4500 ca         1 13M      -0.083000
     29 C95          9.7660     6.2250    -3.7560 ca         1 13M      -0.050000
     30 C96          9.3750     6.3060    -2.3950 ca         1 13M      -0.005000
     31 C97          7.8830     1.5560    -2.4600 c          1 13M       0.581700
     32 C98          8.4060     5.2700    -0.3800 ca         1 13M       0.020000
     33 C99          7.8340     4.1610     0.2560 ca         1 13M      -0.129000
     34 N99          6.7230     0.7280    -2.0300 ny         1 13M      -0.710800
     35 O99          8.6120     1.0800    -3.3310 o          1 13M      -0.493100
     36 H2           4.6550    -0.9970     2.0790 hc         1 13M       0.062700
     37 H3           2.9860     1.5790     1.7600 hc         1 13M       0.042200
     38 H3A          2.4070     0.1720     2.7450 hc         1 13M       0.042200
     39 H4           4.4380     0.3000     4.1840 hc         1 13M       0.032033
     40 H4A          3.6000     1.9060     4.1340 hc         1 13M       0.032033
     41 H4B          5.1050     1.6330     3.1560 hc         1 13M       0.032033
     42 H5           2.3620    -0.2880     0.1390 hc         1 13M       0.049700
     43 H5A          2.5700    -1.7690     1.1660 hc         1 13M       0.049700
     44 H7           3.9860     0.2040    -1.6450 ha         1 13M       0.173000
     45 H10          5.2950    -4.6000    -1.5550 ha         1 13M       0.140000
     46 H11          3.7430    -3.7060     0.1620 ha         1 13M       0.139000
     47 H12          7.5230    -4.6080    -2.1890 h1         1 13M       0.048033
     48 H12A         7.9890    -4.4110    -3.9590 h1         1 13M       0.048033
     49 H12B         6.3270    -5.0590    -3.5090 h1         1 13M       0.048033
     50 H15          5.6330     0.3550    -3.8220 hx         1 13M       0.099200
     51 H15A         7.1140    -0.7040    -3.5840 hx         1 13M       0.099200
     52 H88         10.2690     9.5660    -1.7880 ha         1 13M       0.138000
     53 H91          9.3030     8.5390     0.2290 ha         1 13M       0.139000
     54 H92          8.2910     6.5630     1.3710 ha         1 13M       0.144000
     55 H93          8.8860     2.9670    -4.3930 ha         1 13M       0.152000
     56 H94          9.8690     4.9340    -5.5080 ha         1 13M       0.139000
     57 H99          7.5180     4.2350     1.3080 ha         1 13M       0.155000
     58 HN99         5.9390     1.3430    -1.6940 hn         1 13M       0.510800
     59 H22          7.1710     2.1230     0.1160 ha         1 13M       0.211000
     60 H85         10.6340     7.2800    -5.4380 ha         1 13M       0.138000
     61 H992         6.9900     0.1980    -1.1550 hn         1 13M       0.510800
     62 H86         10.9520     9.4050    -4.1760 ha         1 13M       0.138000
@<TRIPOS>BOND
     1     1     2 1   
     2     1     3 1   
     3     1     4 1   
     4     3     5 1   
     5     3     8 1   
     6     3    36 1   
     7     5     7 1   
     8     5    37 1   
     9     5    38 1   
    10     6    12 1   
    11     6    15 1   
    12     7    39 1   
    13     7    40 1   
    14     7    41 1   
    15     8     9 1   
    16     8    42 1   
    17     8    43 1   
    18     9    10 ar  
    19     9    14 ar  
    20    10    11 ar  
    21    10    44 1   
    22    11    12 ar  
    23    11    16 1   
    24    12    13 ar  
    25    13    14 ar  
    26    13    45 1   
    27    14    46 1   
    28    15    47 1   
    29    15    48 1   
    30    15    49 1   
    31    16    34 1   
    32    16    50 1   
    33    16    51 1   
    34    17    18 ar  
    35    17    22 ar  
    36    17    27 ar  
    37    18    30 ar  
    38    18    32 ar  
    39    19    22 ar  
    40    19    33 ar  
    41    19    59 1   
    42    20    21 ar  
    43    20    29 ar  
    44    20    60 1   
    45    21    23 ar  
    46    21    62 1   
    47    22    31 1   
    48    23    24 ar  
    49    23    52 1   
    50    24    25 ar  
    51    24    30 ar  
    52    25    26 ar  
    53    25    53 1   
    54    26    32 ar  
    55    26    54 1   
    56    27    28 ar  
    57    27    55 1   
    58    28    29 ar  
    59    28    56 1   
    60    29    30 ar  
    61    31    34 1   
    62    31    35 2   
    63    32    33 ar  
    64    33    57 1   
    65    34    58 1   
    66    34    61 1   
@<TRIPOS>SUBSTRUCTURE
     1 13M         1 TEMP              0 ****  ****    0 ROOT
