@<TRIPOS>MOLECULE
13M
   61    65     1     0     0
SMALL
bcc


@<TRIPOS>ATOM
      1 C1           0.0000     0.0000     0.0000 c          1 13M       0.987600
      2 O1          -0.6040    -0.9060    -0.5230 o          1 13M      -0.900300
      3 C2           1.5070     0.0000     0.0000 c3         1 13M      -0.153700
      4 O2          -0.6710     1.0100     0.5770 o          1 13M      -0.900300
      5 C3           2.0180     0.0000     1.4430 c3         1 13M      -0.011400
      6 O3           0.7080    -0.9270    -6.1890 os         1 13M      -0.320900
      7 C4           3.5400     0.1480     1.4450 c3         1 13M      -0.007100
      8 C5           2.0170    -1.2490    -0.7210 c3         1 13M       0.038900
      9 C6           1.6670    -1.1630    -2.1840 ca         1 13M      -0.083300
     10 C7           2.4680    -0.4350    -3.0430 ca         1 13M      -0.062000
     11 C8           2.1490    -0.3530    -4.3850 ca         1 13M      -0.193300
     12 C9           1.0250    -1.0050    -4.8690 ca         1 13M       0.134100
     13 C10          0.2220    -1.7350    -4.0050 ca         1 13M      -0.222000
     14 C11          0.5480    -1.8180    -2.6660 ca         1 13M       0.008000
     15 C12         -0.4630    -1.6220    -6.6180 c3         1 13M       0.243700
     16 C15          3.0230     0.4420    -5.3220 c3         1 13M       0.125300
     17 C17          6.5210    -0.3750    -8.7810 ca         1 13M       0.014000
     18 C19          7.2320    -1.2080    -9.5040 ca         1 13M      -0.027000
     19 C22          5.2930    -2.2050    -7.7960 ca         1 13M      -0.082000
     20 C85          9.5430     1.0720   -11.4270 ca         1 13M      -0.081000
     21 C86         10.2370     0.2090   -12.1400 ca         1 13M      -0.111000
     22 C87          5.4910    -0.9040    -7.8720 ca         1 13M      -0.116600
     23 C88          9.9760    -1.2380   -12.0270 ca         1 13M      -0.098000
     24 C89          9.0410    -1.6730   -11.2130 ca         1 13M      -0.026000
     25 C91          8.7520    -3.1080   -11.0740 ca         1 13M      -0.087000
     26 C92          7.8330    -3.5600   -10.2550 ca         1 13M      -0.087000
     27 C93          6.7720     1.0730    -8.8840 ca         1 13M      -0.096000
     28 C94          7.7030     1.5270    -9.7000 ca         1 13M      -0.109000
     29 C95          8.4980     0.5870   -10.5100 ca         1 13M      -0.028000
     30 C96          8.2680    -0.7010   -10.4180 ca         1 13M      -0.017000
     31 C97          4.6840     0.0160    -7.0510 c          1 13M       0.587700
     32 C98          7.0150    -2.6640    -9.4240 ca         1 13M      -0.019000
     33 C99          6.0950    -3.1340    -8.6120 ca         1 13M      -0.099000
     34 N99          3.8240    -0.4730    -6.1370 ns         1 13M      -0.169900
     35 O99          4.7950     1.2150    -7.1990 o          1 13M      -0.668100
     36 H2           1.8680     0.8850    -0.5110 hc         1 13M       0.027700
     37 H3           1.5740     0.8270     1.9830 hc         1 13M       0.021200
     38 H3A          1.7450    -0.9320     1.9230 hc         1 13M       0.021200
     39 H4           3.8580     0.5930     2.3800 hc         1 13M      -0.011300
     40 H4A          3.8420     0.7830     0.6210 hc         1 13M      -0.011300
     41 H4B          3.9970    -0.8280     1.3360 hc         1 13M      -0.011300
     42 H5           3.0930    -1.3160    -0.6110 hc         1 13M       0.009200
     43 H5A          1.5550    -2.1290    -0.2910 hc         1 13M       0.009200
     44 H7           3.3460     0.0740    -2.6640 ha         1 13M       0.104000
     45 H10         -0.6540    -2.2480    -4.3820 ha         1 13M       0.112000
     46 H11         -0.0780    -2.3880    -1.9910 ha         1 13M       0.151000
     47 H12         -0.6040    -1.4710    -7.6810 h1         1 13M      -0.006633
     48 H12A        -1.3250    -1.2430    -6.0820 h1         1 13M      -0.006633
     49 H12B        -0.3500    -2.6800    -6.4160 h1         1 13M      -0.006633
     50 H15          3.6800     1.0830    -4.7460 h1         1 13M       0.029200
     51 H15A         2.4010     1.0500    -5.9670 h1         1 13M       0.029200
     52 H86         11.0070     0.5650   -12.8140 ha         1 13M       0.098000
     53 H88         10.5520    -1.9400   -12.6170 ha         1 13M       0.102000
     54 H91          9.3180    -3.8160   -11.6680 ha         1 13M       0.097000
     55 H92          7.6710    -4.6290   -10.1880 ha         1 13M       0.099000
     56 H93          6.1870     1.7670    -8.2910 ha         1 13M       0.176000
     57 H94          7.8860     2.5920    -9.7730 ha         1 13M       0.105000
     58 H99          5.9250    -4.2020    -8.5430 ha         1 13M       0.106000
     59 HN99         3.7670    -1.4610    -5.9830 hn         1 13M       0.181500
     60 H22          4.5330    -2.5940    -7.1290 ha         1 13M       0.111000
     61 H85          9.7400     2.1340   -11.5150 ha         1 13M       0.103000
@<TRIPOS>BOND
     1     1     2 1   
     2     1     3 1   
     3     1     4 1   
     4     3     5 1   
     5     3     8 1   
     6     3    36 1   
     7     5     7 1   
     8     5    37 1   
     9     5    38 1   
    10     6    12 1   
    11     6    15 1   
    12     7    39 1   
    13     7    40 1   
    14     7    41 1   
    15     8     9 1   
    16     8    42 1   
    17     8    43 1   
    18     9    10 ar  
    19     9    14 ar  
    20    10    11 ar  
    21    10    44 1   
    22    11    12 ar  
    23    11    16 1   
    24    12    13 ar  
    25    13    14 ar  
    26    13    45 1   
    27    14    46 1   
    28    15    47 1   
    29    15    48 1   
    30    15    49 1   
    31    16    34 1   
    32    16    50 1   
    33    16    51 1   
    34    17    18 ar  
    35    17    22 ar  
    36    17    27 ar  
    37    18    30 ar  
    38    18    32 ar  
    39    19    22 ar  
    40    19    33 ar  
    41    19    60 1   
    42    20    21 ar  
    43    20    29 ar  
    44    20    61 1   
    45    21    23 ar  
    46    21    52 1   
    47    22    31 1   
    48    23    24 ar  
    49    23    53 1   
    50    24    25 ar  
    51    24    30 ar  
    52    25    26 ar  
    53    25    54 1   
    54    26    32 ar  
    55    26    55 1   
    56    27    28 ar  
    57    27    56 1   
    58    28    29 ar  
    59    28    57 1   
    60    29    30 ar  
    61    31    34 1   
    62    31    35 2   
    63    32    33 ar  
    64    33    58 1   
    65    34    59 1   
@<TRIPOS>SUBSTRUCTURE
     1 13M         1 TEMP              0 ****  ****    0 ROOT
