@<TRIPOS>MOLECULE
13N
   62    64     1     0     0
SMALL
bcc


@<TRIPOS>ATOM
      1 CAL         0.3540    0.5210    0.0890 ca        1 13N     -0.098000
      2 CAJ         1.6680    0.9130    0.3400 ca        1 13N     -0.117500
      3 CAI         2.0250    1.3970    1.6000 ca        1 13N     -0.069000
      4 CAK         1.0670    1.4910    2.6130 ca        1 13N     -0.117500
      5 CAM        -0.2480    1.1020    2.3670 ca        1 13N     -0.098000
      6 CBC        -0.6070    0.6160    1.1030 ca        1 13N     -0.202300
      7 CAT        -2.0230    0.2640    0.8200 c3        1 13N      0.183100
      8 NAW        -2.3000   -1.1650    1.2180 n4        1 13N     -0.678800
      9 CAZ        -3.7080   -1.6050    0.9360 c         1 13N      0.541100
     10 OAC        -4.5180   -0.7270    0.6820 o         1 13N     -0.386100
     11 CBG        -3.9880   -3.0980    0.9610 c3        1 13N     -0.236700
     12 CAS        -5.5040   -3.3300    0.9500 c3        1 13N     -0.094400
     13 CAQ        -5.9270   -4.4650    0.0320 c3        1 13N     -0.081400
     14 CAO        -7.2140   -5.0850    0.5480 c3        1 13N     -0.065200
     15 CAG        -7.5660   -6.3510   -0.1390 c2        1 13N     -0.127200
     16 CAH        -7.2810   -7.5850    0.2900 c2        1 13N     -0.195200
     17 CAP        -6.4420   -7.9230    1.4670 c3        1 13N     -0.058200
     18 CAR        -7.2280   -7.7860    2.7700 c3        1 13N      0.105800
     19 NAV        -6.3450   -7.6760    3.9730 n4        1 13N     -0.666800
     20 CAY        -5.4880   -6.4210    3.9490 c         1 13N      0.600700
     21 OAB        -6.0820   -5.3760    3.7160 o         1 13N     -0.443100
     22 CBF        -4.0610   -6.6150    4.2080 ca        1 13N     -0.276600
     23 CBB        -3.6450   -7.3470    5.3470 ca        1 13N      0.226100
     24 OAE        -4.6340   -7.9310    6.0960 oh        1 13N     -0.539100
     25 CAN        -2.2990   -7.4680    5.6840 ca        1 13N     -0.232000
     26 CBA        -1.3340   -6.8780    4.8510 ca        1 13N      0.263100
     27 OAD        -0.0490   -7.0510    5.2440 oh        1 13N     -0.437100
     28 CBD        -1.7320   -6.1720    3.6840 ca        1 13N     -0.102600
     29 CL1        -0.5290   -5.5370    2.6660 cl        1 13N     -0.048400
     30 CBE        -3.0840   -6.0160    3.3770 ca        1 13N      0.067700
     31 CAU        -3.4930   -5.3020    2.1310 c3        1 13N     -0.152100
     32 CAX        -3.3590   -3.8050    2.1570 c         1 13N      0.587100
     33 OAA        -2.7860   -3.1740    3.0470 o         1 13N     -0.517100
     34 HAL         0.0730    0.1650   -0.9140 ha        1 13N      0.138500
     35 HAJ         2.4220    0.8520   -0.4620 ha        1 13N      0.164000
     36 HAI         3.0640    1.7150    1.7940 ha        1 13N      0.167000
     37 HAK         1.3490    1.8850    3.6030 ha        1 13N      0.164000
     38 HAM        -1.0050    1.2020    3.1600 ha        1 13N      0.138500
     39 HAT1       -2.2630    0.3630   -0.2780 hx        1 13N      0.116700
     40 HAT2       -2.7350    0.9200    1.4020 hx        1 13N      0.116700
     41 HAW        -2.1300   -1.2680    2.2340 hn        1 13N      0.467800
     42 HBG        -3.5390   -3.5280    0.0160 hc        1 13N      0.124700
     43 HAS1       -6.0380   -2.3960    0.6190 hc        1 13N      0.091700
     44 HAS2       -5.8430   -3.5300    2.0050 hc        1 13N      0.091700
     45 HAQ1       -6.0870   -4.0740   -1.0080 hc        1 13N      0.057200
     46 HAQ2       -5.1290   -5.2500   -0.0400 hc        1 13N      0.057200
     47 HAO1       -8.0550   -4.3500    0.4120 hc        1 13N      0.058700
     48 HAO2       -7.1160   -5.2630    1.6550 hc        1 13N      0.058700
     49 HAG        -8.1470   -6.2250   -1.0720 ha        1 13N      0.160000
     50 HAH        -7.6450   -8.4600   -0.2800 ha        1 13N      0.161000
     51 HAP1       -6.0640   -8.9770    1.3670 hc        1 13N      0.059700
     52 HAP2       -5.5420   -7.2480    1.4810 hc        1 13N      0.059700
     53 HAR1       -7.8800   -6.8640    2.7420 hx        1 13N      0.121200
     54 HAR2       -7.8890   -8.6890    2.9150 hx        1 13N      0.121200
     55 HAV        -6.9270   -7.6490    4.8220 hn        1 13N      0.470300
     56 HAE        -4.2500   -8.2930    6.9150 ho        1 13N      0.484000
     57 HAN        -1.9730   -8.0150    6.5850 ha        1 13N      0.201000
     58 HAD         0.5590   -6.6200    4.6130 ho        1 13N      0.464000
     59 HAU1       -4.5670   -5.5370    1.8860 hc        1 13N      0.106200
     60 HAU2       -2.8700   -5.6850    1.2690 hc        1 13N      0.106200
     61 HAW2       -1.6420   -1.7820    0.7320 hn        1 13N      0.467800
     62 HAV2       -5.7290   -8.4950    4.0380 hn        1 13N      0.470300
@<TRIPOS>BOND
     1    1    2 ar
     2    1    6 ar
     3    1   34 1
     4    2    3 ar
     5    2   35 1
     6    3    4 ar
     7    3   36 1
     8    4    5 ar
     9    4   37 1
    10    5    6 ar
    11    5   38 1
    12    6    7 1
    13    7    8 1
    14    7   39 1
    15    7   40 1
    16    8    9 1
    17    8   41 1
    18    8   61 1
    19    9   10 2
    20    9   11 1
    21   11   12 1
    22   11   32 1
    23   11   42 1
    24   12   13 1
    25   12   43 1
    26   12   44 1
    27   13   14 1
    28   13   45 1
    29   13   46 1
    30   14   15 1
    31   14   47 1
    32   14   48 1
    33   15   16 2
    34   15   49 1
    35   16   17 1
    36   16   50 1
    37   17   18 1
    38   17   51 1
    39   17   52 1
    40   18   19 1
    41   18   53 1
    42   18   54 1
    43   19   20 1
    44   19   55 1
    45   19   62 1
    46   20   21 2
    47   20   22 1
    48   22   23 ar
    49   22   30 ar
    50   23   24 1
    51   23   25 ar
    52   24   56 1
    53   25   26 ar
    54   25   57 1
    55   26   27 1
    56   26   28 ar
    57   27   58 1
    58   28   29 1
    59   28   30 ar
    60   30   31 1
    61   31   32 1
    62   31   59 1
    63   31   60 1
    64   32   33 2
@<TRIPOS>SUBSTRUCTURE
     1 13N         1 TEMP              0 ****  ****    0 ROOT
