@<TRIPOS>MOLECULE
molecule
   15    14     1     0     0
SMALL
bcc


@<TRIPOS>ATOM
      1 P            0.0000     0.0000     0.0000 p5         1 13P       1.147900
      2 O1P          1.4800     0.0000     0.0000 o          1 13P      -0.907833
      3 O2P         -0.5350     0.0000     1.5180 o          1 13P      -0.907833
      4 O3P         -0.5360    -1.3140    -0.7590 o          1 13P      -0.907833
      5 O1          -0.5350     1.3150    -0.7580 os         1 13P      -0.510200
      6 C1          -0.0300     1.2570    -2.0920 c3         1 13P       0.077400
      7 C2          -0.4970     2.4660    -2.8600 c          1 13P       0.544100
      8 O2          -1.1940     3.2910    -2.3200 o          1 13P      -0.504100
      9 C3          -0.0980     2.6450    -4.3010 c3         1 13P       0.016400
     10 O3          -0.6620     3.8580    -4.8060 oh         1 13P      -0.596800
     11 H11          1.0530     1.2420    -2.0670 h1         1 13P       0.062200
     12 H12         -0.3930     0.3590    -2.5770 h1         1 13P       0.062200
     13 H31         -0.4640     1.8080    -4.8840 h1         1 13P       0.028200
     14 H32          0.9810     2.6910    -4.3740 h1         1 13P       0.028200
     15 HO3         -0.4120     3.9700    -5.7080 ho         1 13P       0.368000
@<TRIPOS>BOND
     1     1     2 1
     2     1     3 1
     3     1     4 1
     4     1     5 1
     5     5     6 1
     6     6     7 1
     7     6    11 1
     8     6    12 1
     9     7     8 2
    10     7     9 1
    11     9    10 1
    12     9    13 1
    13     9    14 1
    14    10    15 1
@<TRIPOS>SUBSTRUCTURE
     1 13P         1 TEMP              0 ****  ****    0 ROOT
