@<TRIPOS>MOLECULE
13P
   15    14     1     0     0
SMALL
bcc


@<TRIPOS>ATOM
      1 P           -0.0900    -0.2790     0.0730 p5         1 13P       1.312900
      2 O1P          1.4020    -0.2080     0.1940 o          1 13P      -0.921833
      3 O2P         -0.8890    -0.2430     1.3520 o          1 13P      -0.921833
      4 O3P         -0.6470    -1.1830    -0.9950 o          1 13P      -0.921833
      5 O1          -0.4990     1.2990    -0.5600 os         1 13P      -0.551200
      6 C1          -1.6360     1.3590    -1.3140 c3         1 13P       0.132400
      7 C2          -2.7600     2.0730    -0.5730 c          1 13P       0.521100
      8 O2          -3.2540     3.1540    -0.9500 o          1 13P      -0.664100
      9 C3          -3.2520     1.4000     0.6760 c3         1 13P      -0.035600
     10 O3          -4.1750     2.1910     1.4180 oh         1 13P      -0.641800
     11 H11         -1.4380     1.9460    -2.2600 h1         1 13P       0.021700
     12 H12         -2.0010     0.3230    -1.5870 h1         1 13P       0.021700
     13 H31         -2.3490     1.0940     1.3100 h1         1 13P       0.129200
     14 H32         -3.8080     0.4620     0.4080 h1         1 13P       0.129200
     15 HO3         -3.9440     3.1120     1.2490 ho         1 13P       0.389000
@<TRIPOS>BOND
     1     1     2 1   
     2     1     3 1   
     3     1     4 1   
     4     1     5 1   
     5     5     6 1   
     6     6     7 1   
     7     6    11 1   
     8     6    12 1   
     9     7     8 2   
    10     7     9 1   
    11     9    10 1   
    12     9    13 1   
    13     9    14 1   
    14    10    15 1   
@<TRIPOS>SUBSTRUCTURE
     1 13P         1 TEMP              0 ****  ****    0 ROOT
