@<TRIPOS>MOLECULE
13P
   15    14     1     0     0
SMALL
bcc


@<TRIPOS>ATOM
      1 P           0.7710    0.2810   -0.6830 p5        1 13P      1.312900
      2 O1P         1.8460    0.9360   -1.5140 o         1 13P     -0.921833
      3 O2P         0.9540    0.2870    0.8050 o         1 13P     -0.921833
      4 O3P         0.1690   -0.9580   -1.2930 o         1 13P     -0.921833
      5 O1         -0.5150    1.4430   -0.9160 os        1 13P     -0.551200
      6 C1         -1.2990    1.2480   -2.0170 c3        1 13P      0.132400
      7 C2         -1.0260    2.2950   -3.0900 c         1 13P      0.521100
      8 O2         -1.8700    3.1320   -3.4640 o         1 13P     -0.664100
      9 C3          0.3530    2.2790   -3.6850 c3        1 13P     -0.035600
     10 O3          0.6080    3.3810   -4.5480 oh        1 13P     -0.641800
     11 H11        -2.3890    1.3420   -1.7330 h1        1 13P      0.021700
     12 H12        -1.1180    0.2270   -2.4710 h1        1 13P      0.021700
     13 H31         0.4820    1.3630   -4.3210 h1        1 13P      0.129200
     14 H32         1.1200    2.2170   -2.8360 h1        1 13P      0.129200
     15 HO3         0.0740    4.1140   -4.2230 ho        1 13P      0.389000
@<TRIPOS>BOND
     1    1    2 1   
     2    1    3 1   
     3    1    4 1   
     4    1    5 1   
     5    5    6 1   
     6    6    7 1   
     7    6   11 1   
     8    6   12 1   
     9    7    8 2   
    10    7    9 1   
    11    9   10 1   
    12    9   13 1   
    13    9   14 1   
    14   10   15 1   
@<TRIPOS>SUBSTRUCTURE
     1 13P         1 TEMP              0 ****  ****    0 ROOT
