@<TRIPOS>MOLECULE
molecule
   51    54     1     0     0
SMALL
bcc


@<TRIPOS>ATOM
      1 C1           0.0000     0.0000     0.0000 ca         1 13Q      -0.106000
      2 C2           1.3820     0.0000     0.0000 ca         1 13Q      -0.128500
      3 C3           2.0750     0.0000     1.1980 ca         1 13Q       0.023400
      4 C4           1.3820    -0.0000     2.3960 ca         1 13Q      -0.128500
      5 C5          -0.0000     0.0010     2.3950 ca         1 13Q      -0.106000
      6 C6          -0.6900     0.0010     1.1970 ca         1 13Q      -0.092300
      7 C7          -2.1980     0.0080     1.1970 c3         1 13Q       0.177000
      8 N1          -2.6840    -1.0070     2.1240 n          1 13Q      -0.499800
      9 C8          -3.7220    -0.8340     2.9440 c          1 13Q       0.687500
     10 O2          -5.0230    -0.6620     5.3940 o          1 13Q      -0.833300
     11 C9          -4.4920     0.4510     3.0470 c3         1 13Q      -0.112700
     12 C10         -4.2140     1.3250     1.8220 c3         1 13Q      -0.083400
     13 C11         -2.6970     1.3930     1.6100 c3         1 13Q      -0.037400
     14 C12         -2.3830     2.3880     0.5220 ca         1 13Q      -0.054300
     15 C13         -1.5750     3.4760     0.7940 ca         1 13Q      -0.114000
     16 C14         -2.8980     2.2090    -0.7480 ca         1 13Q      -0.122000
     17 C15         -2.6090     3.1220    -1.7470 ca         1 13Q       0.027400
     18 O3          -4.1820     0.8610     6.7560 o          1 13Q      -0.833300
     19 C16         -1.8050     4.2140    -1.4730 ca         1 13Q      -0.134000
     20 C17         -1.2860     4.3890    -0.2050 ca         1 13Q      -0.122000
     21 C18         -1.9900    -2.2970     2.1570 c3         1 13Q       0.133000
     22 C19         -2.7120    -3.2870     1.2420 cx         1 13Q      -0.124700
     23 C20         -2.2010    -4.7290     1.2180 cx         1 13Q      -0.151400
     24 C21         -1.9490    -3.8070     0.0220 cx         1 13Q      -0.151400
     25 C22         -4.0650     1.1990     4.3130 c3         1 13Q      -0.180400
     26 C23         -4.4590     0.3970     5.5270 c          1 13Q       0.877600
     27 Cl1          3.8100    -0.0010     1.1980 cl         1 13Q      -0.130400
     28 Cl2         -3.2560     2.8970    -3.3420 cl         1 13Q      -0.128400
     29 H1          -0.5420    -0.0000    -0.9380 ha         1 13Q       0.152500
     30 H2           1.9230    -0.0000    -0.9380 ha         1 13Q       0.140500
     31 H3           1.9230    -0.0000     3.3340 ha         1 13Q       0.140500
     32 H4          -0.5420     0.0010     3.3320 ha         1 13Q       0.152500
     33 H5          -2.5600    -0.2180     0.2010 h1         1 13Q       0.046700
     34 H6          -5.5510     0.2300     3.0950 hc         1 13Q       0.097700
     35 H8          -4.6840     0.8880     0.9500 hc         1 13Q       0.042200
     36 H7          -4.6020     2.3220     1.9910 hc         1 13Q       0.042200
     37 H9          -2.2150     1.6910     2.5330 hc         1 13Q       0.086700
     38 H10         -1.1670     3.6140     1.7880 ha         1 13Q       0.143000
     39 H11         -3.5280     1.3530    -0.9610 ha         1 13Q       0.148000
     40 H12         -1.5790     4.9300    -2.2540 ha         1 13Q       0.134000
     41 H13         -0.6550     5.2430     0.0090 ha         1 13Q       0.132000
     42 H15         -1.9860    -2.6790     3.1710 h1         1 13Q       0.063700
     43 H14         -0.9700    -2.1670     1.8160 h1         1 13Q       0.063700
     44 H16         -3.7810    -3.1830     1.0970 hc         1 13Q       0.094700
     45 H18         -1.3400    -4.9300     1.8430 hc         1 13Q       0.067200
     46 H17         -2.9570    -5.4900     1.0700 hc         1 13Q       0.067200
     47 H20         -2.5510    -4.0060    -0.8570 hc         1 13Q       0.067200
     48 H19         -0.9330    -3.4460    -0.0840 hc         1 13Q       0.067200
     49 H22         -2.9900     1.3370     4.3060 hc         1 13Q       0.032700
     50 H21         -4.5530     2.1650     4.3440 hc         1 13Q       0.032700
     51 O1          -4.0620    -1.7650     3.6430 o          1 13Q      -0.562500
@<TRIPOS>BOND
     1    27     3 1
     2     3     4 ar
     3     3     2 ar
     4     4     5 ar
     5    23    24 1
     6    23    22 1
     7    24    22 1
     8     2     1 ar
     9     5     6 ar
    10     1     6 ar
    11    22    21 1
    12     6     7 1
    13    28    17 1
    14    21     8 1
    15    17    16 ar
    16    17    19 ar
    17     7     8 1
    18     7    13 1
    19     8     9 1
    20    16    14 ar
    21    19    20 ar
    22    14    13 1
    23    14    15 ar
    24    13    12 1
    25    20    15 ar
    26     9    51 2
    27     9    11 1
    28    12    11 1
    29    11    25 1
    30    25    26 1
    31    26    18 1
    32    26    10 1
    33     1    29 1
    34     2    30 1
    35     4    31 1
    36     5    32 1
    37     7    33 1
    38    11    34 1
    39    12    35 1
    40    12    36 1
    41    13    37 1
    42    15    38 1
    43    16    39 1
    44    19    40 1
    45    20    41 1
    46    21    42 1
    47    21    43 1
    48    22    44 1
    49    23    45 1
    50    23    46 1
    51    24    47 1
    52    24    48 1
    53    25    49 1
    54    25    50 1
@<TRIPOS>SUBSTRUCTURE
     1 13Q         1 TEMP              0 ****  ****    0 ROOT
