@<TRIPOS>MOLECULE
13Q
   51    54     1     0     0
SMALL
bcc


@<TRIPOS>ATOM
      1 C1           0.0000     0.0000     0.0000 ca         1 13Q      -0.079000
      2 C2           1.3820     0.0000     0.0000 ca         1 13Q      -0.105000
      3 C3           2.0750     0.0000     1.1980 ca         1 13Q      -0.034600
      4 C4           1.3820    -0.0000     2.3960 ca         1 13Q      -0.105000
      5 C5          -0.0000     0.0010     2.3950 ca         1 13Q      -0.079000
      6 C6          -0.6900     0.0010     1.1970 ca         1 13Q      -0.099300
      7 C7          -2.1980     0.0080     1.1970 c3         1 13Q       0.102000
      8 N1          -2.6840    -1.0070     2.1240 n          1 13Q      -0.173800
      9 C8          -3.7220    -0.8340     2.9440 c          1 13Q       0.605500
     10 O2          -5.0230    -0.6620     5.3940 o          1 13Q      -0.880300
     11 C9          -4.4920     0.4510     3.0470 c3         1 13Q      -0.088700
     12 C10         -4.2140     1.3250     1.8220 c3         1 13Q      -0.034400
     13 C11         -2.6970     1.3930     1.6100 c3         1 13Q      -0.017400
     14 C12         -2.3830     2.3880     0.5220 ca         1 13Q      -0.054300
     15 C13         -1.5750     3.4760     0.7940 ca         1 13Q      -0.088000
     16 C14         -2.8980     2.2090    -0.7480 ca         1 13Q      -0.105000
     17 C15         -2.6090     3.1220    -1.7470 ca         1 13Q      -0.029600
     18 O3          -4.1820     0.8610     6.7560 o          1 13Q      -0.880300
     19 C16         -1.8050     4.2140    -1.4730 ca         1 13Q      -0.115000
     20 C17         -1.2860     4.3890    -0.2050 ca         1 13Q      -0.093000
     21 C18         -1.9900    -2.2970     2.1570 c3         1 13Q       0.068000
     22 C19         -2.7120    -3.2870     1.2420 cx         1 13Q      -0.102700
     23 C20         -2.2010    -4.7290     1.2180 cx         1 13Q      -0.095900
     24 C21         -1.9490    -3.8070     0.0220 cx         1 13Q      -0.095900
     25 C22         -4.0650     1.1990     4.3130 c3         1 13Q      -0.132400
     26 C23         -4.4590     0.3970     5.5270 c          1 13Q       0.959600
     27 Cl1          3.8100    -0.0010     1.1980 cl         1 13Q      -0.050400
     28 Cl2         -3.2560     2.8970    -3.3420 cl         1 13Q      -0.050400
     29 H1          -0.5420    -0.0000    -0.9380 ha         1 13Q       0.124000
     30 H2           1.9230    -0.0000    -0.9380 ha         1 13Q       0.112500
     31 H3           1.9230    -0.0000     3.3340 ha         1 13Q       0.112500
     32 H4          -0.5420     0.0010     3.3320 ha         1 13Q       0.124000
     33 H5          -2.5600    -0.2180     0.2010 h1         1 13Q       0.024700
     34 H6          -5.5510     0.2300     3.0950 hc         1 13Q       0.067700
     35 H8          -4.6840     0.8880     0.9500 hc         1 13Q       0.016200
     36 H7          -4.6020     2.3220     1.9910 hc         1 13Q       0.016200
     37 H9          -2.2150     1.6910     2.5330 hc         1 13Q       0.065700
     38 H10         -1.1670     3.6140     1.7880 ha         1 13Q       0.116000
     39 H11         -3.5280     1.3530    -0.9610 ha         1 13Q       0.125000
     40 H12         -1.5790     4.9300    -2.2540 ha         1 13Q       0.108000
     41 H13         -0.6550     5.2430     0.0090 ha         1 13Q       0.102000
     42 H15         -1.9860    -2.6790     3.1710 h1         1 13Q       0.041200
     43 H14         -0.9700    -2.1670     1.8160 h1         1 13Q       0.041200
     44 H16         -3.7810    -3.1830     1.0970 hc         1 13Q       0.069700
     45 H18         -1.3400    -4.9300     1.8430 hc         1 13Q       0.040200
     46 H17         -2.9570    -5.4900     1.0700 hc         1 13Q       0.040200
     47 H20         -2.5510    -4.0060    -0.8570 hc         1 13Q       0.040200
     48 H19         -0.9330    -3.4460    -0.0840 hc         1 13Q       0.040200
     49 H22         -2.9900     1.3370     4.3060 hc         1 13Q       0.008200
     50 H21         -4.5530     2.1650     4.3440 hc         1 13Q       0.008200
     51 O1          -4.0620    -1.7650     3.6430 o          1 13Q      -0.590500
@<TRIPOS>BOND
     1     1     2 ar  
     2     1     6 ar  
     3     1    29 1   
     4     2     3 ar  
     5     2    30 1   
     6     3     4 ar  
     7     3    27 1   
     8     4     5 ar  
     9     4    31 1   
    10     5     6 ar  
    11     5    32 1   
    12     6     7 1   
    13     7     8 1   
    14     7    13 1   
    15     7    33 1   
    16     8     9 1   
    17     8    21 1   
    18     9    11 1   
    19     9    51 2   
    20    10    26 1   
    21    11    12 1   
    22    11    25 1   
    23    11    34 1   
    24    12    13 1   
    25    12    35 1   
    26    12    36 1   
    27    13    14 1   
    28    13    37 1   
    29    14    15 ar  
    30    14    16 ar  
    31    15    20 ar  
    32    15    38 1   
    33    16    17 ar  
    34    16    39 1   
    35    17    19 ar  
    36    17    28 1   
    37    18    26 1   
    38    19    20 ar  
    39    19    40 1   
    40    20    41 1   
    41    21    22 1   
    42    21    42 1   
    43    21    43 1   
    44    22    23 1   
    45    22    24 1   
    46    22    44 1   
    47    23    24 1   
    48    23    45 1   
    49    23    46 1   
    50    24    47 1   
    51    24    48 1   
    52    25    26 1   
    53    25    49 1   
    54    25    50 1   
@<TRIPOS>SUBSTRUCTURE
     1 13Q         1 TEMP              0 ****  ****    0 ROOT
