@<TRIPOS>MOLECULE
13Q
   51    54     1     0     0
SMALL
bcc


@<TRIPOS>ATOM
      1 C1          -0.3330     0.1560    -0.8370 ca         1 13Q      -0.107000
      2 C2           0.9270     0.6080    -1.2350 ca         1 13Q      -0.136500
      3 C3           1.9140     0.8420    -0.2760 ca         1 13Q       0.014400
      4 C4           1.6560     0.6210     1.0800 ca         1 13Q      -0.136500
      5 C5           0.3970     0.1690     1.4670 ca         1 13Q      -0.107000
      6 C6          -0.6060    -0.0640     0.5170 ca         1 13Q      -0.099300
      7 C7          -1.9600    -0.5580     1.0000 c3         1 13Q       0.182000
      8 N1          -2.9410     0.5090     1.1010 n          1 13Q      -0.473800
      9 C8          -4.1170     0.5610     0.3630 c          1 13Q       0.702500
     10 O2          -4.1640    -2.1430    -3.3330 o          1 13Q      -0.842800
     11 C9          -4.4140    -0.5440    -0.6380 c3         1 13Q      -0.093700
     12 C10         -3.8830    -1.8610    -0.1070 c3         1 13Q      -0.070400
     13 C11         -2.3900    -1.7960     0.1680 c3         1 13Q      -0.059400
     14 C12         -1.9350    -3.0520     0.8470 ca         1 13Q      -0.045300
     15 C13         -2.3840    -3.3920     2.1290 ca         1 13Q      -0.135000
     16 C14         -1.0600    -3.9150     0.1730 ca         1 13Q      -0.101000
     17 C15         -0.6370    -5.0910     0.7970 ca         1 13Q       0.016400
     18 O3          -2.0920    -1.3870    -2.9830 o          1 13Q      -0.842800
     19 C16         -1.0780    -5.4270     2.0800 ca         1 13Q      -0.141000
     20 C17         -1.9570    -4.5700     2.7390 ca         1 13Q      -0.134000
     21 C18         -2.6730     1.5590     2.0610 c3         1 13Q       0.135000
     22 C19         -2.4500     2.9350     1.4780 cx         1 13Q      -0.130700
     23 C20         -1.0580     3.4190     1.1830 cx         1 13Q      -0.137900
     24 C21         -1.8050     3.9720     2.3600 cx         1 13Q      -0.137900
     25 C22         -3.8940    -0.1390    -2.0090 c3         1 13Q      -0.197400
     26 C23         -3.3520    -1.3160    -2.8370 c          1 13Q       0.908600
     27 Cl1          3.4550     1.3990    -0.7570 cl         1 13Q      -0.130400
     28 Cl2          0.4350    -6.1390    -0.0160 cl         1 13Q      -0.116400
     29 H1          -1.0970    -0.0550    -1.6210 ha         1 13Q       0.171500
     30 H2           1.1320     0.7680    -2.3040 ha         1 13Q       0.142000
     31 H3           2.4370     0.7960     1.8330 ha         1 13Q       0.142000
     32 H4           0.1970    -0.0100     2.5350 ha         1 13Q       0.171500
     33 H5          -1.8080    -0.9180     2.0710 h1         1 13Q       0.032700
     34 H6          -5.5370    -0.6310    -0.7010 hc         1 13Q       0.073700
     35 H8          -4.0760    -2.6610    -0.8750 hc         1 13Q       0.061700
     36 H7          -4.4370    -2.1330     0.8300 hc         1 13Q       0.061700
     37 H9          -1.8920    -1.7360    -0.8530 hc         1 13Q       0.143700
     38 H10         -3.0870    -2.7270     2.6540 ha         1 13Q       0.134000
     39 H11         -0.7220    -3.6650    -0.8470 ha         1 13Q       0.178000
     40 H12         -0.7410    -6.3550     2.5620 ha         1 13Q       0.133000
     41 H13         -2.3170    -4.8280     3.7450 ha         1 13Q       0.123000
     42 H15         -1.7750     1.2680     2.6770 h1         1 13Q       0.041700
     43 H14         -3.5680     1.6330     2.7480 h1         1 13Q       0.041700
     44 H16         -3.2760     3.2470     0.8050 hc         1 13Q       0.109700
     45 H18         -0.8950     4.0590     0.2980 hc         1 13Q       0.065450
     46 H17         -0.2080     2.7330     1.3560 hc         1 13Q       0.065450
     47 H20         -1.4860     3.6880     3.3780 hc         1 13Q       0.065450
     48 H19         -2.1820     5.0090     2.3220 hc         1 13Q       0.065450
     49 H22         -4.7300     0.3370    -2.5830 hc         1 13Q       0.038700
     50 H21         -3.0790     0.6220    -1.9040 hc         1 13Q       0.038700
     51 O1          -4.9250     1.4960     0.5580 o          1 13Q      -0.680500
@<TRIPOS>BOND
     1     1     2 ar  
     2     1     6 ar  
     3     1    29 1   
     4     2     3 ar  
     5     2    30 1   
     6     3     4 ar  
     7     3    27 1   
     8     4     5 ar  
     9     4    31 1   
    10     5     6 ar  
    11     5    32 1   
    12     6     7 1   
    13     7     8 1   
    14     7    13 1   
    15     7    33 1   
    16     8     9 1   
    17     8    21 1   
    18     9    11 1   
    19     9    51 2   
    20    10    26 1   
    21    11    12 1   
    22    11    25 1   
    23    11    34 1   
    24    12    13 1   
    25    12    35 1   
    26    12    36 1   
    27    13    14 1   
    28    13    37 1   
    29    14    15 ar  
    30    14    16 ar  
    31    15    20 ar  
    32    15    38 1   
    33    16    17 ar  
    34    16    39 1   
    35    17    19 ar  
    36    17    28 1   
    37    18    26 1   
    38    19    20 ar  
    39    19    40 1   
    40    20    41 1   
    41    21    22 1   
    42    21    42 1   
    43    21    43 1   
    44    22    23 1   
    45    22    24 1   
    46    22    44 1   
    47    23    24 1   
    48    23    45 1   
    49    23    46 1   
    50    24    47 1   
    51    24    48 1   
    52    25    26 1   
    53    25    49 1   
    54    25    50 1   
@<TRIPOS>SUBSTRUCTURE
     1 13Q         1 TEMP              0 ****  ****    0 ROOT
