@<TRIPOS>MOLECULE
13R
   53    52     1     0     0
SMALL
bcc


@<TRIPOS>ATOM
      1 C1         -0.3690    1.0250   -0.0340 c         1 13R      0.907600
      2 C2          1.1700    1.0050   -0.0050 c3        1 13R     -0.194400
      3 C3          1.6860    0.2410    1.1890 c3        1 13R     -0.065400
      4 C4          3.1890    0.3630    1.3310 c3        1 13R     -0.078400
      5 C5          3.7000   -0.4240    2.5180 c3        1 13R     -0.078400
      6 C6          5.2030   -0.3040    2.6570 c3        1 13R     -0.079400
      7 C7          5.7140   -1.0990    3.8390 c3        1 13R     -0.078400
      8 C8          7.2210   -0.9880    3.9630 c3        1 13R     -0.061200
      9 C9          7.7500   -1.7710    5.1040 c2        1 13R     -0.124200
     10 C10         9.0520   -1.9700    5.3610 ce        1 13R     -0.178000
     11 C11        10.1330   -1.4340    4.5620 ce        1 13R     -0.080000
     12 C12        11.4060   -1.8500    4.6200 c2        1 13R     -0.193200
     13 C13        11.8910   -2.9630    5.4830 c3        1 13R      0.139300
     14 C14        13.3080   -3.4050    5.1370 c3        1 13R     -0.100400
     15 C15        13.3520   -4.1320    3.8120 c3        1 13R     -0.078400
     16 C16        14.7640   -4.5480    3.4620 c3        1 13R     -0.078400
     17 C17        14.8090   -5.2790    2.1370 c3        1 13R     -0.081400
     18 C18        16.2130   -5.6950    1.7820 c3        1 13R     -0.092100
     19 O19        -0.9900    1.2960    1.0350 o         1 13R     -0.852800
     20 O20        -0.9400    0.7860   -1.1370 o         1 13R     -0.852800
     21 O21        11.8790   -2.4540    6.8560 os        1 13R     -0.212800
     22 O22        11.8140   -3.4100    7.7160 oh        1 13R     -0.399000
     23 H21         1.5520    0.5520   -0.9530 hc        1 13R      0.018700
     24 H22         1.5240    2.0670    0.0370 hc        1 13R      0.018700
     25 H31         1.4070   -0.8400    1.0890 hc        1 13R      0.044200
     26 H32         1.1780    0.6300    2.1120 hc        1 13R      0.044200
     27 H41         3.4680    1.4440    1.4490 hc        1 13R      0.025700
     28 H42         3.6870   -0.0040    0.3950 hc        1 13R      0.025700
     29 H51         3.4180   -1.5030    2.4010 hc        1 13R      0.037700
     30 H52         3.2050   -0.0530    3.4540 hc        1 13R      0.037700
     31 H61         5.4840    0.7750    2.7800 hc        1 13R      0.034700
     32 H62         5.6960   -0.6690    1.7170 hc        1 13R      0.034700
     33 H71         5.4250   -2.1760    3.7210 hc        1 13R      0.041200
     34 H72         5.2290   -0.7270    4.7800 hc        1 13R      0.041200
     35 H81         7.5050    0.0930    4.0930 hc        1 13R      0.050700
     36 H82         7.6980   -1.3370    3.0070 hc        1 13R      0.050700
     37 H91         6.9910   -2.2100    5.7740 ha        1 13R      0.125000
     38 H101        9.3600   -2.5640    6.2410 ha        1 13R      0.137000
     39 H111        9.8600   -0.6220    3.8620 ha        1 13R      0.125000
     40 H121       12.1780   -1.3730    3.9960 ha        1 13R      0.126000
     41 H131       11.1920   -3.8450    5.4350 h1        1 13R      0.070700
     42 H141       13.6810   -4.0800    5.9520 hc        1 13R      0.044200
     43 H142       13.9840   -2.5110    5.1100 hc        1 13R      0.044200
     44 H151       12.9430   -3.4650    3.0060 hc        1 13R      0.046200
     45 H152       12.6920   -5.0390    3.8570 hc        1 13R      0.046200
     46 H161       15.1740   -5.2100    4.2700 hc        1 13R      0.037700
     47 H162       15.4230   -3.6410    3.4120 hc        1 13R      0.037700
     48 H171       14.1490   -6.1860    2.1880 hc        1 13R      0.040700
     49 H172       14.3960   -4.6170    1.3310 hc        1 13R      0.040700
     50 H181       16.8800   -4.8030    1.7010 hc        1 13R      0.031700
     51 H182       16.2230   -6.2320    0.8030 hc        1 13R      0.031700
     52 H183       16.6330   -6.3750    2.5620 hc        1 13R      0.031700
     53 H221       12.7290   -3.6020    8.0230 ho        1 13R      0.389000
@<TRIPOS>BOND
     1    1    2 1   
     2    1   19 1   
     3    1   20 1   
     4    2    3 1   
     5    2   23 1   
     6    2   24 1   
     7    3    4 1   
     8    3   25 1   
     9    3   26 1   
    10    4    5 1   
    11    4   27 1   
    12    4   28 1   
    13    5    6 1   
    14    5   29 1   
    15    5   30 1   
    16    6    7 1   
    17    6   31 1   
    18    6   32 1   
    19    7    8 1   
    20    7   33 1   
    21    7   34 1   
    22    8    9 1   
    23    8   35 1   
    24    8   36 1   
    25    9   10 2   
    26    9   37 1   
    27   10   11 1   
    28   10   38 1   
    29   11   12 2   
    30   11   39 1   
    31   12   13 1   
    32   12   40 1   
    33   13   14 1   
    34   13   21 1   
    35   13   41 1   
    36   14   15 1   
    37   14   42 1   
    38   14   43 1   
    39   15   16 1   
    40   15   44 1   
    41   15   45 1   
    42   16   17 1   
    43   16   46 1   
    44   16   47 1   
    45   17   18 1   
    46   17   48 1   
    47   17   49 1   
    48   18   50 1   
    49   18   51 1   
    50   18   52 1   
    51   21   22 1   
    52   22   53 1   
@<TRIPOS>SUBSTRUCTURE
     1 13R         1 TEMP              0 ****  ****    0 ROOT
