@<TRIPOS>MOLECULE
molecule
   53    52     1     0     0
SMALL
bcc


@<TRIPOS>ATOM
      1 C1           0.0000     0.0000     0.0000 c          1 13R       0.890600
      2 C2           1.5060     0.0000     0.0000 c3         1 13R      -0.182400
      3 C3           2.0170     0.0000     1.4430 c3         1 13R      -0.063400
      4 C4           3.5460     0.0010     1.4430 c3         1 13R      -0.088400
      5 C5           4.0570     0.0010     2.8850 c3         1 13R      -0.079400
      6 C6           5.5870     0.0020     2.8850 c3         1 13R      -0.092400
      7 C7           6.0960     0.0020     4.3270 c3         1 13R      -0.098400
      8 C8           7.6270     0.0020     4.3270 c3         1 13R       0.071800
      9 C9           8.1270     0.0020     5.7480 c2         1 13R      -0.228200
     10 C10          8.9910    -0.9250     6.1480 ce         1 13R      -0.183000
     11 C11          9.5590    -1.8690     5.1730 ce         1 13R      -0.021000
     12 C12         10.4910    -2.7370     5.5540 c2         1 13R      -0.306200
     13 C13         11.0730    -3.7030     4.5560 c3         1 13R       0.178300
     14 C14         12.5820    -3.4780     4.4470 c3         1 13R      -0.072400
     15 C15         13.1730    -4.4590     3.4340 c3         1 13R      -0.085400
     16 C16         14.6830    -4.2340     3.3270 c3         1 13R      -0.082400
     17 C17         15.2740    -5.2150     2.3130 c3         1 13R      -0.083400
     18 C18         16.7830    -4.9900     2.2040 c3         1 13R      -0.092100
     19 O19         -0.6050    -0.0010     1.0460 o          1 13R      -0.857300
     20 O20         -0.6710    -0.0010    -1.1620 o          1 13R      -0.857300
     21 O21         10.8210    -5.0420     4.9870 os         1 13R      -0.219800
     22 O22          9.5320    -5.4390     4.4080 oh         1 13R      -0.436000
     23 H21          1.8670     0.8840    -0.5110 hc         1 13R       0.026700
     24 H22          1.8670    -0.8840    -0.5110 hc         1 13R       0.026700
     25 H31          1.6560    -0.8850     1.9530 hc         1 13R       0.045700
     26 H32          1.6550     0.8840     1.9540 hc         1 13R       0.045700
     27 H41          3.9080    -0.8830     0.9320 hc         1 13R       0.028700
     28 H42          3.9070     0.8860     0.9330 hc         1 13R       0.028700
     29 H51          3.6960    -0.8840     3.3960 hc         1 13R       0.041700
     30 H52          3.6950     0.8850     3.3970 hc         1 13R       0.041700
     31 H61          5.9470     0.8860     2.3740 hc         1 13R       0.035200
     32 H62          5.9480    -0.8830     2.3740 hc         1 13R       0.035200
     33 H71          5.7350    -0.8830     4.8380 hc         1 13R       0.056700
     34 H72          5.7350     0.8860     4.8380 hc         1 13R       0.056700
     35 H81          7.9880    -0.8820     3.8170 hc         1 13R       0.048200
     36 H82          7.9880     0.8870     3.8170 hc         1 13R       0.048200
     37 H91          8.6970     0.4540     4.9450 ha         1 13R       0.087000
     38 H101         8.4590    -1.8200     5.8460 ha         1 13R       0.107000
     39 H111         9.2190    -1.8560     4.1450 ha         1 13R       0.153000
     40 H121        10.8310    -2.7490     6.5820 ha         1 13R       0.146000
     41 H131        10.6140    -3.5430     3.5880 h1         1 13R       0.061700
     42 H141        13.0420    -3.6390     5.4150 hc         1 13R       0.054200
     43 H142        12.7740    -2.4630     4.1210 hc         1 13R       0.054200
     44 H151        12.9820    -5.4740     3.7600 hc         1 13R       0.048200
     45 H152        12.7150    -4.2980     2.4660 hc         1 13R       0.048200
     46 H161        15.1410    -4.3940     4.2950 hc         1 13R       0.039700
     47 H162        14.8740    -3.2190     3.0000 hc         1 13R       0.039700
     48 H171        15.0840    -6.2300     2.6410 hc         1 13R       0.040700
     49 H172        14.8140    -5.0560     1.3450 hc         1 13R       0.040700
     50 H181        16.9730    -3.9750     1.8760 hc         1 13R       0.031033
     51 H182        17.2010    -5.6860     1.4870 hc         1 13R       0.031033
     52 H183        17.2430    -5.1490     3.1720 hc         1 13R       0.031033
     53 H221         9.3250    -6.3190     4.6750 ho         1 13R       0.409000
@<TRIPOS>BOND
     1     1     2 1
     2     1    19 1
     3     1    20 1
     4     2     3 1
     5     2    23 1
     6     2    24 1
     7     3     4 1
     8     3    25 1
     9     3    26 1
    10     4     5 1
    11     4    27 1
    12     4    28 1
    13     5     6 1
    14     5    29 1
    15     5    30 1
    16     6     7 1
    17     6    31 1
    18     6    32 1
    19     7     8 1
    20     7    33 1
    21     7    34 1
    22     8     9 1
    23     8    35 1
    24     8    36 1
    25     9    10 2
    26     9    37 1
    27    10    11 1
    28    10    38 1
    29    11    12 2
    30    11    39 1
    31    12    13 1
    32    12    40 1
    33    13    14 1
    34    13    21 1
    35    13    41 1
    36    14    15 1
    37    14    42 1
    38    14    43 1
    39    15    16 1
    40    15    44 1
    41    15    45 1
    42    16    17 1
    43    16    46 1
    44    16    47 1
    45    17    18 1
    46    17    48 1
    47    17    49 1
    48    18    50 1
    49    18    51 1
    50    18    52 1
    51    21    22 1
    52    22    53 1
@<TRIPOS>SUBSTRUCTURE
     1 13R         1 TEMP              0 ****  ****    0 ROOT
