@<TRIPOS>MOLECULE
molecule
   53    52     1     0     0
SMALL
bcc


@<TRIPOS>ATOM
      1 C1           0.0000     0.0000     0.0000 c          1 13R       0.907600
      2 C2           1.5430     0.0000     0.0000 c3         1 13R      -0.195400
      3 C3           2.0900     0.0000     1.4420 c3         1 13R      -0.067400
      4 C4           3.5530     0.4550     1.5590 c3         1 13R      -0.075400
      5 C5           4.5060    -0.7430     1.7360 c3         1 13R      -0.080400
      6 C6           5.8350    -0.3240     2.3560 c3         1 13R      -0.075400
      7 C7           6.8310     0.2560     1.3360 c3         1 13R      -0.079400
      8 C8           7.5320     1.4850     1.9320 c3         1 13R      -0.133200
      9 C9           9.0370     1.5990     1.6460 c2         1 13R       0.197800
     10 C10          9.9790     1.4610     2.6460 ce         1 13R      -0.458000
     11 C11          9.6170     1.2100     3.9240 ce         1 13R      -0.053000
     12 C12         10.5280     1.0850     4.9010 c2         1 13R      -0.227200
     13 C13         10.0670     0.7900     6.3180 c3         1 13R       0.136300
     14 C14         11.1730     0.0560     7.0890 c3         1 13R      -0.075400
     15 C15         10.6210    -1.2370     7.7170 c3         1 13R      -0.076400
     16 C16         10.7130    -1.1420     9.2480 c3         1 13R      -0.086400
     17 C17         10.3370    -2.4310     9.9800 c3         1 13R      -0.078400
     18 C18         11.4290    -2.7490    11.0160 c3         1 13R      -0.091100
     19 O19         -0.6260    -1.0800    -0.0080 o          1 13R      -0.852300
     20 O20         -0.6250     1.0560     0.0000 o          1 13R      -0.852300
     21 O21          9.7250     2.0290     6.9840 os         1 13R      -0.216800
     22 O22          9.1420     2.0200     8.0550 oh         1 13R      -0.395000
     23 H21          1.8990     0.8830    -0.5160 hc         1 13R       0.018700
     24 H22          1.8990    -0.8830    -0.5160 hc         1 13R       0.018700
     25 H31          1.4760     0.6600     2.0430 hc         1 13R       0.045200
     26 H32          2.0090    -1.0040     1.8410 hc         1 13R       0.045200
     27 H41          3.6510     1.1140     2.4130 hc         1 13R       0.020200
     28 H42          3.8280     0.9950     0.6620 hc         1 13R       0.020200
     29 H51          4.0330    -1.4770     2.3780 hc         1 13R       0.043700
     30 H52          4.6930    -1.1910     0.7680 hc         1 13R       0.043700
     31 H61          6.2860    -1.1900     2.8260 hc         1 13R       0.027200
     32 H62          5.6430     0.4230     3.1160 hc         1 13R       0.027200
     33 H71          6.2990     0.5460     0.4380 hc         1 13R       0.034700
     34 H72          7.5710    -0.4960     1.0890 hc         1 13R       0.034700
     35 H81          7.3930     1.4640     3.0070 hc         1 13R       0.034700
     36 H82          7.0470     2.3720     1.5440 hc         1 13R       0.034700
     37 H91          8.5020     1.4040     2.5680 ha         1 13R       0.061000
     38 H101         9.0040     1.3320     3.0990 ha         1 13R       0.213000
     39 H111         8.5650     1.1000     4.1610 ha         1 13R       0.136000
     40 H121        11.5830     1.1910     4.6790 ha         1 13R       0.134000
     41 H131         9.1870     0.1590     6.2780 h1         1 13R       0.073700
     42 H141        11.5530     0.7010     7.8720 hc         1 13R       0.058200
     43 H142        11.9790    -0.1930     6.4090 hc         1 13R       0.058200
     44 H151         9.5860    -1.3680     7.4250 hc         1 13R       0.040700
     45 H152        11.2030    -2.0840     7.3730 hc         1 13R       0.040700
     46 H161        11.7290    -0.8780     9.5160 hc         1 13R       0.050700
     47 H162        10.0520    -0.3510     9.5830 hc         1 13R       0.050700
     48 H171        10.2630    -3.2450     9.2690 hc         1 13R       0.036200
     49 H172         9.3870    -2.3000    10.4830 hc         1 13R       0.036200
     50 H181        11.0850    -3.5380    11.6730 hc         1 13R       0.031367
     51 H182        11.6430    -1.8610    11.5990 hc         1 13R       0.031367
     52 H183        12.3290    -3.0700    10.5050 hc         1 13R       0.031367
     53 H221         8.8090     2.8830     8.2380 ho         1 13R       0.394000
@<TRIPOS>BOND
     1     1     2 1   
     2     1    19 1   
     3     1    20 1   
     4     2     3 1   
     5     2    23 1   
     6     2    24 1   
     7     3     4 1   
     8     3    25 1   
     9     3    26 1   
    10     4     5 1   
    11     4    27 1   
    12     4    28 1   
    13     5     6 1   
    14     5    29 1   
    15     5    30 1   
    16     6     7 1   
    17     6    31 1   
    18     6    32 1   
    19     7     8 1   
    20     7    33 1   
    21     7    34 1   
    22     8     9 1   
    23     8    35 1   
    24     8    36 1   
    25     9    10 2   
    26     9    37 1   
    27    10    11 1   
    28    10    38 1   
    29    11    12 2   
    30    11    39 1   
    31    12    13 1   
    32    12    40 1   
    33    13    14 1   
    34    13    21 1   
    35    13    41 1   
    36    14    15 1   
    37    14    42 1   
    38    14    43 1   
    39    15    16 1   
    40    15    44 1   
    41    15    45 1   
    42    16    17 1   
    43    16    46 1   
    44    16    47 1   
    45    17    18 1   
    46    17    48 1   
    47    17    49 1   
    48    18    50 1   
    49    18    51 1   
    50    18    52 1   
    51    21    22 1   
    52    22    53 1   
@<TRIPOS>SUBSTRUCTURE
     1 13R         1 TEMP              0 ****  ****    0 ROOT
