@<TRIPOS>MOLECULE
13S
   53    52     1     0     0
SMALL
bcc


@<TRIPOS>ATOM
      1 C1          0.4490    3.0860    1.1370 c         1 13S      0.907600
      2 C2          1.4640    1.9900    0.7640 c3        1 13S     -0.194400
      3 C3          2.2410    1.5290    1.9720 c3        1 13S     -0.065400
      4 C4          3.3710    0.5940    1.5940 c3        1 13S     -0.078400
      5 C5          4.1350    0.1270    2.8150 c3        1 13S     -0.079400
      6 C6          5.2710   -0.8000    2.4370 c3        1 13S     -0.079400
      7 C7          6.0320   -1.2650    3.6600 c3        1 13S     -0.078400
      8 C8          7.1690   -2.1920    3.2770 c3        1 13S     -0.061200
      9 C9          7.9310   -2.6620    4.4560 c2        1 13S     -0.118200
     10 C10         8.9850   -3.4910    4.4120 ce        1 13S     -0.179000
     11 C11         9.5350   -4.0530    3.1980 ce        1 13S     -0.100000
     12 C12        10.5830   -4.8860    3.1330 c2        1 13S     -0.215200
     13 C13        11.3670   -5.3820    4.2980 c3        1 13S      0.134300
     14 C14        12.4470   -4.4070    4.7520 c3        1 13S     -0.069400
     15 C15        13.4230   -4.0600    3.6510 c3        1 13S     -0.079400
     16 C16        14.4710   -3.0830    4.1380 c3        1 13S     -0.078400
     17 C17        15.4500   -2.7330    3.0370 c3        1 13S     -0.079400
     18 C18        16.4970   -1.7610    3.5170 c3        1 13S     -0.092100
     19 O19         0.8330    4.0360    1.8790 o         1 13S     -0.852800
     20 O20        -0.7200    2.9910    0.6630 o         1 13S     -0.852800
     21 O21        12.0750   -6.6050    3.9210 os        1 13S     -0.217800
     22 O22        11.3060   -7.6360    3.9560 oh        1 13S     -0.394000
     23 H21         0.9240    1.1290    0.2950 hc        1 13S      0.018700
     24 H22         2.1610    2.4160   -0.0010 hc        1 13S      0.018700
     25 H31         2.6480    2.4320    2.5020 hc        1 13S      0.044200
     26 H32         1.5490    1.0110    2.6860 hc        1 13S      0.044200
     27 H41         4.0720    1.1170    0.8910 hc        1 13S      0.026700
     28 H42         2.9580   -0.2940    1.0470 hc        1 13S      0.026700
     29 H51         4.5410    1.0170    3.3640 hc        1 13S      0.037700
     30 H52         3.4350   -0.4020    3.5150 hc        1 13S      0.037700
     31 H61         5.9700   -0.2700    1.7370 hc        1 13S      0.035200
     32 H62         4.8630   -1.6880    1.8870 hc        1 13S      0.035200
     33 H71         5.3330   -1.7950    4.3590 hc        1 13S      0.041200
     34 H72         6.4400   -0.3760    4.2090 hc        1 13S      0.041200
     35 H81         7.8620   -1.6570    2.5700 hc        1 13S      0.052700
     36 H82         6.7550   -3.0760    2.7190 hc        1 13S      0.052700
     37 H91         7.5800   -2.2830    5.4310 ha        1 13S      0.125000
     38 H101        9.4890   -3.7790    5.3520 ha        1 13S      0.118000
     39 H111        9.0300   -3.7510    2.2610 ha        1 13S      0.127000
     40 H121       10.9360   -5.2600    2.1570 ha        1 13S      0.127000
     41 H131       10.6870   -5.6320    5.1610 h1        1 13S      0.068700
     42 H141       11.9340   -3.4780    5.1190 hc        1 13S      0.053700
     43 H142       13.0000   -4.8640    5.6140 hc        1 13S      0.053700
     44 H151       13.9180   -4.9990    3.2850 hc        1 13S      0.048700
     45 H152       12.8670   -3.6180    2.7820 hc        1 13S      0.048700
     46 H161       13.9720   -2.1480    4.5070 hc        1 13S      0.038700
     47 H162       15.0260   -3.5270    5.0060 hc        1 13S      0.038700
     48 H171       14.8930   -2.2890    2.1700 hc        1 13S      0.039200
     49 H172       15.9450   -3.6690    2.6670 hc        1 13S      0.039200
     50 H181       17.2080   -1.5170    2.6910 hc        1 13S      0.031367
     51 H182       17.0790   -2.1950    4.3660 hc        1 13S      0.031367
     52 H183       16.0230   -0.8120    3.8670 hc        1 13S      0.031367
     53 H221       10.8610   -7.7160    3.0810 ho        1 13S      0.392000
@<TRIPOS>BOND
     1    1    2 1
     2    1   19 1
     3    1   20 1
     4    2    3 1
     5    2   23 1
     6    2   24 1
     7    3    4 1
     8    3   25 1
     9    3   26 1
    10    4    5 1
    11    4   27 1
    12    4   28 1
    13    5    6 1
    14    5   29 1
    15    5   30 1
    16    6    7 1
    17    6   31 1
    18    6   32 1
    19    7    8 1
    20    7   33 1
    21    7   34 1
    22    8    9 1
    23    8   35 1
    24    8   36 1
    25    9   10 2
    26    9   37 1
    27   10   11 1
    28   10   38 1
    29   11   12 2
    30   11   39 1
    31   12   13 1
    32   12   40 1
    33   13   14 1
    34   13   21 1
    35   13   41 1
    36   14   15 1
    37   14   42 1
    38   14   43 1
    39   15   16 1
    40   15   44 1
    41   15   45 1
    42   16   17 1
    43   16   46 1
    44   16   47 1
    45   17   18 1
    46   17   48 1
    47   17   49 1
    48   18   50 1
    49   18   51 1
    50   18   52 1
    51   21   22 1
    52   22   53 1
@<TRIPOS>SUBSTRUCTURE
     1 13S         1 TEMP              0 ****  ****    0 ROOT
