@<TRIPOS>MOLECULE
molecule
   53    52     1     0     0
SMALL
bcc


@<TRIPOS>ATOM
      1 C1           0.0000     0.0000     0.0000 c          1 13S       0.907600
      2 C2           1.5310     0.0000     0.0000 c3         1 13S      -0.194400
      3 C3           2.1550     0.0000     1.3950 c3         1 13S      -0.067400
      4 C4           3.4010     0.9050     1.3650 c3         1 13S      -0.074400
      5 C5           4.6970     0.2250     1.8440 c3         1 13S      -0.080400
      6 C6           5.3710     1.0450     2.9650 c3         1 13S      -0.077400
      7 C7           6.8790     0.7700     3.1410 c3         1 13S      -0.082400
      8 C8           7.1990    -0.6270     3.7280 c3         1 13S      -0.131200
      9 C9           8.0970    -0.6330     4.9760 c2         1 13S       0.182800
     10 C10          9.4960    -0.4960     4.9190 ce         1 13S      -0.452000
     11 C11         10.1730    -0.3320     3.7320 ce         1 13S      -0.052000
     12 C12         11.5330    -0.2020     3.6840 c2         1 13S      -0.190200
     13 C13         12.2440    -0.0120     2.3420 c3         1 13S       0.138300
     14 C14         11.8750     1.3670     1.6930 c3         1 13S      -0.106400
     15 C15         13.1590     2.2250     1.5240 c3         1 13S      -0.080400
     16 C16         13.5690     2.4280     0.0440 c3         1 13S      -0.089400
     17 C17         14.9630     3.1010    -0.0990 c3         1 13S      -0.078400
     18 C18         14.9870     4.0460    -1.3220 c3         1 13S      -0.093100
     19 O19         -0.6250     1.0790    -0.0810 o          1 13S      -0.852800
     20 O20         -0.6030    -1.0750     0.0050 o          1 13S      -0.852800
     21 O21         11.8540    -1.0880     1.4570 os         1 13S      -0.213800
     22 O22         11.9580    -0.9950     0.2460 oh         1 13S      -0.395000
     23 H21          1.8750     0.8800    -0.5310 hc         1 13S       0.018700
     24 H22          1.8750    -0.8800    -0.5310 hc         1 13S       0.018700
     25 H31          2.4430    -1.0090     1.6670 hc         1 13S       0.044700
     26 H32          1.4420     0.3830     2.1150 hc         1 13S       0.044700
     27 H41          3.2140     1.7660     1.9950 hc         1 13S       0.020200
     28 H42          3.5510     1.2490     0.3490 hc         1 13S       0.020200
     29 H51          5.3810     0.1360     1.0090 hc         1 13S       0.042700
     30 H52          4.4620    -0.7640     2.2190 hc         1 13S       0.042700
     31 H61          4.8710     0.8210     3.9000 hc         1 13S       0.031700
     32 H62          5.2370     2.0970     2.7470 hc         1 13S       0.031700
     33 H71          7.2910     1.5240     3.8000 hc         1 13S       0.033200
     34 H72          7.3590     0.8570     2.1740 hc         1 13S       0.033200
     35 H81          6.2640    -1.1110     3.9820 hc         1 13S       0.032700
     36 H82          7.6870    -1.2140     2.9580 hc         1 13S       0.032700
     37 H91          8.3570    -0.5200     3.9310 ha         1 13S       0.062000
     38 H101         9.1300    -0.4460     3.9000 ha         1 13S       0.210000
     39 H111         9.6070    -0.2990     2.8090 ha         1 13S       0.151000
     40 H121        12.1110    -0.2340     4.6000 ha         1 13S       0.130000
     41 H131        13.3150    -0.0530     2.4990 h1         1 13S       0.069700
     42 H141        11.4240     1.1990     0.7220 hc         1 13S       0.060200
     43 H142        11.1730     1.8900     2.3310 hc         1 13S       0.060200
     44 H151        12.9880     3.1960     1.9740 hc         1 13S       0.043700
     45 H152        13.9730     1.7380     2.0470 hc         1 13S       0.043700
     46 H161        12.8280     3.0510    -0.4420 hc         1 13S       0.042700
     47 H162        13.5940     1.4630    -0.4480 hc         1 13S       0.042700
     48 H171        15.1780     3.6710     0.7970 hc         1 13S       0.038700
     49 H172        15.7180     2.3350    -0.2250 hc         1 13S       0.038700
     50 H181        14.2850     4.8560    -1.1670 hc         1 13S       0.032700
     51 H182        15.9840     4.4520    -1.4460 hc         1 13S       0.032700
     52 H183        14.7100     3.4930    -2.2110 hc         1 13S       0.032700
     53 H221        11.8440    -1.8460    -0.1460 ho         1 13S       0.395000
@<TRIPOS>BOND
     1     1     2 1   
     2     1    19 1   
     3     1    20 1   
     4     2     3 1   
     5     2    23 1   
     6     2    24 1   
     7     3     4 1   
     8     3    25 1   
     9     3    26 1   
    10     4     5 1   
    11     4    27 1   
    12     4    28 1   
    13     5     6 1   
    14     5    29 1   
    15     5    30 1   
    16     6     7 1   
    17     6    31 1   
    18     6    32 1   
    19     7     8 1   
    20     7    33 1   
    21     7    34 1   
    22     8     9 1   
    23     8    35 1   
    24     8    36 1   
    25     9    10 2   
    26     9    37 1   
    27    10    11 1   
    28    10    38 1   
    29    11    12 2   
    30    11    39 1   
    31    12    13 1   
    32    12    40 1   
    33    13    14 1   
    34    13    21 1   
    35    13    41 1   
    36    14    15 1   
    37    14    42 1   
    38    14    43 1   
    39    15    16 1   
    40    15    44 1   
    41    15    45 1   
    42    16    17 1   
    43    16    46 1   
    44    16    47 1   
    45    17    18 1   
    46    17    48 1   
    47    17    49 1   
    48    18    50 1   
    49    18    51 1   
    50    18    52 1   
    51    21    22 1   
    52    22    53 1   
@<TRIPOS>SUBSTRUCTURE
     1 13S         1 TEMP              0 ****  ****    0 ROOT
