@<TRIPOS>MOLECULE
13U
   66    68     1     0     0
SMALL
bcc


@<TRIPOS>ATOM
      1 C14          0.0000     0.0000     0.0000 c          1 13U       0.610100
      2 O32          1.2130     0.0000     0.0000 o          1 13U      -0.625100
      3 C5          -0.7540     0.0000     1.3050 c3         1 13U       0.074800
      4 N21          0.2000    -0.0000     2.4210 n7         1 13U      -0.563200
      5 C49         -0.5000    -0.0010     3.7120 c3         1 13U       0.088500
      6 C48          0.4050     0.6090     4.7840 c3         1 13U      -0.035900
      7 C47         -0.3420     1.7320     5.5050 c3         1 13U      -0.048900
      8 C46         -1.3560     1.1270     6.4770 c3         1 13U      -0.034400
      9 C45         -2.5640     0.6070     5.6960 c3         1 13U      -0.048400
     10 C44         -2.6170    -0.9190     5.7930 c3         1 13U      -0.034400
     11 C43         -1.2130    -1.4910     5.5860 c3         1 13U      -0.048900
     12 C42         -0.8540    -1.4380     4.1000 c3         1 13U      -0.035900
     13 N1          -0.6740     0.0000    -1.1680 n          1 13U      -0.156800
     14 C1          -0.0680    -0.0940    -2.5090 c3         1 13U      -0.028300
     15 C7           1.2300     0.6690    -2.5540 c          1 13U       0.578100
     16 O22          1.3930     1.6320    -1.8340 o          1 13U      -0.594100
     17 C2          -1.1070     0.5530    -3.4590 c3         1 13U      -0.027400
     18 C3          -2.4430     0.0830    -2.8270 c3         1 13U      -0.027400
     19 C4          -2.1330     0.0940    -1.3150 c3         1 13U       0.050000
     20 N23          2.2130     0.2780    -3.3890 ns         1 13U      -0.212900
     21 C24          3.4770     1.0170    -3.4270 c3         1 13U       0.101300
     22 C25          4.4000     0.3810    -4.4350 ca         1 13U      -0.052300
     23 C30          5.2690    -0.6200    -4.0390 ca         1 13U      -0.055500
     24 C29          6.1110    -1.2110    -4.9590 ca         1 13U      -0.074000
     25 C28          6.0940    -0.7880    -6.2880 ca         1 13U      -0.232900
     26 C21          7.0000    -1.4130    -7.2790 ce         1 13U       0.214800
     27 N46          6.9820    -1.0170    -8.5180 n2         1 13U      -0.490100
     28 N47          7.8620    -2.4140    -6.8880 nz         1 13U       0.188400
     29 C27          5.2200     0.2250    -6.6800 ca         1 13U      -0.074000
     30 C26          4.3790     0.8040    -5.7520 ca         1 13U      -0.055500
     31 H5          -1.3770     0.8850     1.3620 h1         1 13U       0.022200
     32 H5A         -1.3770    -0.8840     1.3620 h1         1 13U       0.022200
     33 HN21         0.7860     0.8090     2.3600 hn         1 13U       0.275800
     34 H49         -1.4090     0.5840     3.6350 h1         1 13U       0.033700
     35 H48          1.2960     1.0110     4.3160 hc         1 13U       0.026200
     36 H48A         0.6820    -0.1570     5.5000 hc         1 13U       0.026200
     37 H47          0.3660     2.3400     6.0550 hc         1 13U       0.025700
     38 H47A        -0.8620     2.3430     4.7770 hc         1 13U       0.025700
     39 H46         -1.6810     1.8870     7.1780 hc         1 13U       0.020200
     40 H46A        -0.8950     0.3070     7.0150 hc         1 13U       0.020200
     41 H45         -3.4710     1.0250     6.1150 hc         1 13U       0.021700
     42 H45A        -2.4730     0.8980     4.6570 hc         1 13U       0.021700
     43 H44         -2.9810    -1.2050     6.7720 hc         1 13U       0.020200
     44 H44A        -3.2790    -1.3060     5.0280 hc         1 13U       0.020200
     45 H43         -1.1900    -2.5200     5.9250 hc         1 13U       0.025700
     46 H43A        -0.4990    -0.9040     6.1500 hc         1 13U       0.025700
     47 H42         -0.0040    -2.0820     3.9120 hc         1 13U       0.026200
     48 H42A        -1.7020    -1.7710     3.5130 hc         1 13U       0.026200
     49 H1           0.0880    -1.1320    -2.7770 h1         1 13U       0.028700
     50 H2          -1.0290     1.6340    -3.4370 hc         1 13U       0.030200
     51 H2A         -1.0000     0.1690    -4.4660 hc         1 13U       0.030200
     52 H3          -3.2410     0.7790    -3.0580 hc         1 13U       0.028200
     53 H3A         -2.6900    -0.9190    -3.1580 hc         1 13U       0.028200
     54 H4          -2.6060    -0.7560    -0.8360 h1         1 13U       0.020200
     55 H4A         -2.4890     1.0170    -0.8740 h1         1 13U       0.020200
     56 HN23         2.0860    -0.5270    -3.9690 hn         1 13U       0.170500
     57 H24          3.2870     2.0450    -3.7110 h1         1 13U       0.043700
     58 H24A         3.9400     0.9920    -2.4480 h1         1 13U       0.043700
     59 H30          5.2820    -0.9480    -3.0060 ha         1 13U       0.134500
     60 H29          6.7920    -1.9940    -4.6480 ha         1 13U       0.099000
     61 HN46         6.3560    -0.2890    -8.8030 hn         1 13U       0.381400
     62 HN47         8.3960    -2.7210    -7.6770 hn         1 13U       0.222467
     63 HN4A         8.4810    -2.0650    -6.1820 hn         1 13U       0.222467
     64 H27          5.2020     0.5580    -7.7110 ha         1 13U       0.099000
     65 H26          3.6990     1.5910    -6.0560 ha         1 13U       0.134500
     66 H473         7.3370    -3.1830    -6.5210 hn         1 13U       0.222467
@<TRIPOS>BOND
     1     1     2 2   
     2     1     3 1   
     3     1    13 1   
     4     3     4 1   
     5     3    31 1   
     6     3    32 1   
     7     4     5 1   
     8     4    33 1   
     9     5     6 1   
    10     5    12 1   
    11     5    34 1   
    12     6     7 1   
    13     6    35 1   
    14     6    36 1   
    15     7     8 1   
    16     7    37 1   
    17     7    38 1   
    18     8     9 1   
    19     8    39 1   
    20     8    40 1   
    21     9    10 1   
    22     9    41 1   
    23     9    42 1   
    24    10    11 1   
    25    10    43 1   
    26    10    44 1   
    27    11    12 1   
    28    11    45 1   
    29    11    46 1   
    30    12    47 1   
    31    12    48 1   
    32    13    14 1   
    33    13    19 1   
    34    14    15 1   
    35    14    17 1   
    36    14    49 1   
    37    15    16 2   
    38    15    20 1   
    39    17    18 1   
    40    17    50 1   
    41    17    51 1   
    42    18    19 1   
    43    18    52 1   
    44    18    53 1   
    45    19    54 1   
    46    19    55 1   
    47    20    21 1   
    48    20    56 1   
    49    21    22 1   
    50    21    57 1   
    51    21    58 1   
    52    22    23 ar  
    53    22    30 ar  
    54    23    24 ar  
    55    23    59 1   
    56    24    25 ar  
    57    24    60 1   
    58    25    26 1   
    59    25    29 ar  
    60    26    27 2   
    61    26    28 1   
    62    27    61 1   
    63    28    62 1   
    64    28    63 1   
    65    28    66 1   
    66    29    30 ar  
    67    29    64 1   
    68    30    65 1   
@<TRIPOS>SUBSTRUCTURE
     1 13U         1 TEMP              0 ****  ****    0 ROOT
