@<TRIPOS>MOLECULE
13U
   68    70     1     0     0
SMALL
bcc


@<TRIPOS>ATOM
      1 C14          0.4360    -1.2420    -0.5120 c          1 13U       0.663100
      2 O32          1.6270    -1.1650    -0.1200 o          1 13U      -0.676100
      3 C5          -0.6630    -1.8120     0.3900 c3         1 13U       0.030800
      4 N21         -0.1440    -2.2490     1.7090 ny         1 13U      -0.761000
      5 C49         -1.1950    -2.8840     2.6200 c3         1 13U       0.143500
      6 C48         -1.6410    -4.2440     2.0800 c3         1 13U      -0.104900
      7 C47         -2.5470    -4.9460     3.0810 c3         1 13U      -0.075400
      8 C46         -3.8920    -5.3300     2.5050 c3         1 13U      -0.087900
      9 C45         -4.6400    -4.2320     1.7780 c3         1 13U      -0.083400
     10 C44         -4.6490    -2.8880     2.4740 c3         1 13U      -0.087900
     11 C43         -3.5410    -1.9450     2.0310 c3         1 13U      -0.075400
     12 C42         -2.3350    -1.9200     2.9480 c3         1 13U      -0.104900
     13 N1           0.0860    -0.7940    -1.7560 n          1 13U      -0.444800
     14 C1           1.0790    -0.4360    -2.7560 c3         1 13U       0.056700
     15 C7           1.8420     0.8420    -2.3540 c          1 13U       0.519100
     16 O22          1.4280     1.9840    -2.3940 o          1 13U      -0.368100
     17 C2           0.3200    -0.1850    -4.0850 c3         1 13U      -0.085400
     18 C3          -1.1590    -0.4230    -3.7920 c3         1 13U      -0.092400
     19 C4          -1.2670    -0.8040    -2.3090 c3         1 13U       0.078000
     20 N23          3.2590     0.6140    -1.8590 ny         1 13U      -0.681800
     21 C24          3.9500     1.8530    -1.3790 c3         1 13U       0.150100
     22 C25          5.4310     1.8540    -1.5970 ca         1 13U      -0.122300
     23 C30          6.0210     3.0000    -2.1480 ca         1 13U      -0.099000
     24 C29          7.4100     3.1120    -2.2200 ca         1 13U      -0.071000
     25 C28          8.2160     2.0650    -1.7620 ca         1 13U      -0.161900
     26 C21          9.6980     2.2140    -1.6940 ce         1 13U       0.602800
     27 N46         10.3410     2.0830    -0.6120 n2         1 13U      -0.648100
     28 N47         10.3050     2.5330    -3.0560 nz         1 13U      -0.880600
     29 C27          7.6320     0.9010    -1.2420 ca         1 13U      -0.071000
     30 C26          6.2420     0.8020    -1.1590 ca         1 13U      -0.099000
     31 H5          -1.4630    -1.0270     0.5580 hx         1 13U       0.146700
     32 H5A         -1.1410    -2.7020    -0.1220 hx         1 13U       0.146700
     33 HN21         0.2570    -1.4360     2.1920 hn         1 13U       0.457800
     34 H49         -0.6140    -3.0670     3.5820 hx         1 13U       0.110700
     35 H48         -2.1770    -4.1230     1.1030 hc         1 13U       0.072200
     36 H48A        -0.7380    -4.8860     1.8920 hc         1 13U       0.072200
     37 H47         -2.0340    -5.8810     3.4380 hc         1 13U       0.052950
     38 H47A        -2.7060    -4.3050     3.9890 hc         1 13U       0.052950
     39 H46         -3.7580    -6.1920     1.7970 hc         1 13U       0.070200
     40 H46A        -4.5280    -5.7030     3.3550 hc         1 13U       0.070200
     41 H45         -4.2410    -4.1200     0.7340 hc         1 13U       0.051200
     42 H45A        -5.7070    -4.5760     1.6650 hc         1 13U       0.051200
     43 H44         -5.6300    -2.3850     2.2450 hc         1 13U       0.070200
     44 H44A        -4.6190    -3.0340     3.5860 hc         1 13U       0.070200
     45 H43         -3.2330    -2.1870     0.9810 hc         1 13U       0.052950
     46 H43A        -3.9660    -0.9020     2.0140 hc         1 13U       0.052950
     47 H42         -1.9360    -0.8690     3.0060 hc         1 13U       0.072200
     48 H42A        -2.6690    -2.1740     3.9960 hc         1 13U       0.072200
     49 H1           1.8130    -1.2870    -2.8740 h1         1 13U       0.095700
     50 H2           0.4860     0.8570    -4.4570 hc         1 13U       0.099200
     51 H2A          0.6960    -0.8990    -4.8620 hc         1 13U       0.099200
     52 H3          -1.5650    -1.2450    -4.4360 hc         1 13U       0.104200
     53 H3A         -1.7600     0.4980    -4.0000 hc         1 13U       0.104200
     54 H4          -1.9000    -0.0620    -1.7470 h1         1 13U       0.080200
     55 H4A         -1.7150    -1.8300    -2.1910 h1         1 13U       0.080200
     56 HN23         3.2020    -0.0740    -1.0890 hn         1 13U       0.473300
     57 H24          3.4870     2.7440    -1.9040 hx         1 13U       0.132200
     58 H24A         3.7360     1.9570    -0.2730 hx         1 13U       0.132200
     59 H30          5.3960     3.8400    -2.5000 ha         1 13U       0.162500
     60 H29          7.8460     4.0510    -2.6020 ha         1 13U       0.171500
     61 HN46        11.3300     2.1770    -0.5130 hn         1 13U       0.488400
     62 HN47         9.7620     3.2770    -3.5070 hn         1 13U       0.468467
     63 HN4A        10.2670     1.6950    -3.6460 hn         1 13U       0.468467
     64 H27          8.2620     0.0760    -0.8650 ha         1 13U       0.171500
     65 H26          5.8040    -0.1020    -0.7070 ha         1 13U       0.162500
     66 H473        11.2820     2.8390    -2.9830 hn         1 13U       0.468467
     67 H212         0.6100    -2.9320     1.5590 hn         1 13U       0.457800
     68 H232         3.8020     0.1960    -2.6230 hn         1 13U       0.473300
@<TRIPOS>BOND
     1     1     2 2   
     2     1     3 1   
     3     1    13 1   
     4     3     4 1   
     5     3    31 1   
     6     3    32 1   
     7     4     5 1   
     8     4    33 1   
     9     4    67 1   
    10     5     6 1   
    11     5    12 1   
    12     5    34 1   
    13     6     7 1   
    14     6    35 1   
    15     6    36 1   
    16     7     8 1   
    17     7    37 1   
    18     7    38 1   
    19     8     9 1   
    20     8    39 1   
    21     8    40 1   
    22     9    10 1   
    23     9    41 1   
    24     9    42 1   
    25    10    11 1   
    26    10    43 1   
    27    10    44 1   
    28    11    12 1   
    29    11    45 1   
    30    11    46 1   
    31    12    47 1   
    32    12    48 1   
    33    13    14 1   
    34    13    19 1   
    35    14    15 1   
    36    14    17 1   
    37    14    49 1   
    38    15    16 2   
    39    15    20 1   
    40    17    18 1   
    41    17    50 1   
    42    17    51 1   
    43    18    19 1   
    44    18    52 1   
    45    18    53 1   
    46    19    54 1   
    47    19    55 1   
    48    20    21 1   
    49    20    56 1   
    50    20    68 1   
    51    21    22 1   
    52    21    57 1   
    53    21    58 1   
    54    22    23 ar  
    55    22    30 ar  
    56    23    24 ar  
    57    23    59 1   
    58    24    25 ar  
    59    24    60 1   
    60    25    26 1   
    61    25    29 ar  
    62    26    27 2   
    63    26    28 1   
    64    27    61 1   
    65    28    62 1   
    66    28    63 1   
    67    28    66 1   
    68    29    30 ar  
    69    29    64 1   
    70    30    65 1   
@<TRIPOS>SUBSTRUCTURE
     1 13U         1 TEMP              0 ****  ****    0 ROOT
