@<TRIPOS>MOLECULE
molecule
   49    51     1     0     0
SMALL
bcc


@<TRIPOS>ATOM
      1 N3           0.0000     0.0000     0.0000 nv         1 13V      -1.053500
      2 C15          1.3860     0.0000     0.0000 ca         1 13V       0.891900
      3 N2           2.0290     0.0000     1.1560 nb         1 13V      -0.721000
      4 N4           2.0300    -0.0060    -1.1570 nb         1 13V      -0.725000
      5 C16          3.3550    -0.0070    -1.2030 ca         1 13V       0.376200
      6 C17          4.0730    -0.0020    -0.0170 ca         1 13V      -0.102500
      7 O2           5.4330    -0.0020    -0.0270 os         1 13V      -0.356900
      8 C18          6.0730    -0.0030    -1.3050 c3         1 13V       0.158400
      9 C19          7.5910    -0.0030    -1.1150 c3         1 13V      -0.473600
     10 O3           7.9930    -1.2240    -0.4890 os         1 13V      -0.203600
     11 C20          9.4000    -1.3270    -0.2650 c3         1 13V       0.099700
     12 C14          3.3610    -0.0010     1.1930 ca         1 13V       0.530100
     13 C11          4.0790     0.0060     2.4860 cc         1 13V      -0.180000
     14 C10          5.4240     0.0170     2.6670 cd         1 13V      -0.064100
     15 N1           5.7100     0.0250     3.9990 na         1 13V      -0.200400
     16 C12          3.4720     0.0070     3.8280 ca         1 13V      -0.090800
     17 C9           4.5460     0.0200     4.7370 ca         1 13V      -0.041200
     18 C8           4.2870     0.0240     6.1060 ca         1 13V      -0.156000
     19 C7           3.0010     0.0160     6.5620 ca         1 13V      -0.076000
     20 C13          2.1620     0.0030     4.2950 ca         1 13V      -0.022000
     21 C6           1.9260     0.0030     5.6660 ca         1 13V      -0.033000
     22 C5           0.5820    -0.0050     6.1610 cg         1 13V      -0.042000
     23 C4          -0.5130    -0.0200     6.5840 c1         1 13V      -0.142100
     24 C1          -1.8890     0.1920     6.8610 c3         1 13V       0.251900
     25 C3          -2.1580     0.3140     8.2640 c3         1 13V      -0.081600
     26 C2          -2.9970    -0.5190     6.1130 c3         1 13V      -0.081600
     27 O1          -2.6190     1.7690     6.5480 oh         1 13V      -0.695800
     28 H1          -0.5000    -0.8430    -0.2000 hn         1 13V       0.441800
     29 H2          -0.5000     0.8530     0.1550 hn         1 13V       0.441800
     30 H3           3.8640    -0.0120    -2.1590 h4         1 13V       0.034100
     31 H4           5.4710     0.5550    -2.0110 h1         1 13V       0.062700
     32 H5           6.1850    -1.0230    -1.6520 h1         1 13V       0.062700
     33 H6           7.8700    -0.8030    -0.4390 h1         1 13V       0.192200
     34 H7           7.9030     0.9470    -0.6980 h1         1 13V       0.192200
     35 H8           9.7100    -0.5640     0.4380 h1         1 13V       0.076033
     36 H9           9.6300    -2.3060     0.1400 h1         1 13V       0.076033
     37 H10          9.9260    -1.1910    -1.2020 h1         1 13V       0.076033
     38 H11          6.1110     0.7610     2.2820 h4         1 13V       0.173000
     39 H12          6.6250     0.0340     4.4040 hn         1 13V       0.298700
     40 H13          5.1090     0.0150     6.8120 ha         1 13V       0.128000
     41 H14          2.8040     0.0190     7.6270 ha         1 13V       0.139000
     42 H15          1.3360    -0.0210     3.5940 ha         1 13V       0.168000
     43 H16         -1.4670     1.0230     8.7040 hc         1 13V       0.050700
     44 H17         -3.1740     0.6630     8.4080 hc         1 13V       0.050700
     45 H18         -2.0370    -0.6510     8.7400 hc         1 13V       0.050700
     46 H19         -2.8600    -1.5900     6.1960 hc         1 13V       0.050700
     47 H20         -2.9710    -0.2320     5.0690 hc         1 13V       0.050700
     48 H21         -3.9550    -0.2440     6.5390 hc         1 13V       0.050700
     49 H22         -2.5700     1.9610     5.6260 ho         1 13V       0.368000
@<TRIPOS>BOND
     1    11    10 1
     2    10     9 1
     3     9     8 1
     4     8     7 1
     5    15    14 1
     6    15    17 1
     7    14    13 2
     8    18    17 ar
     9    18    19 ar
    10    17    16 ar
    11     7     6 1
    12    13    16 1
    13    13    12 1
    14    19    21 ar
    15     6    12 ar
    16     6     5 ar
    17    16    20 ar
    18    12     3 ar
    19     5     4 ar
    20    21    20 ar
    21    21    22 1
    22     3     2 ar
    23     4     2 ar
    24    22    23 3
    25     2     1 1
    26    27    24 1
    27    26    24 1
    28    23    24 1
    29    24    25 1
    30     1    28 1
    31     1    29 1
    32     5    30 1
    33     8    31 1
    34     8    32 1
    35     9    33 1
    36     9    34 1
    37    11    35 1
    38    11    36 1
    39    11    37 1
    40    14    38 1
    41    15    39 1
    42    18    40 1
    43    19    41 1
    44    20    42 1
    45    25    43 1
    46    25    44 1
    47    25    45 1
    48    26    46 1
    49    26    47 1
    50    26    48 1
    51    27    49 1
@<TRIPOS>SUBSTRUCTURE
     1 13V         1 TEMP              0 ****  ****    0 ROOT
