@<TRIPOS>MOLECULE
13V
   49    51     1     0     0
SMALL
bcc


@<TRIPOS>ATOM
      1 N3           0.1000    -1.0070     0.0030 nv         1 13V      -0.922500
      2 C15          1.4910    -0.8400     0.0220 ca         1 13V       0.866900
      3 N2           2.0990    -0.7010     1.2580 nb         1 13V      -0.760000
      4 N4           2.1490    -0.7670    -1.2060 nb         1 13V      -0.751000
      5 C16          3.4560    -0.4990    -1.1480 ca         1 13V       0.459200
      6 C17          4.1570    -0.3150     0.0640 ca         1 13V      -0.220500
      7 O2           5.5290    -0.1620     0.0120 os         1 13V      -0.330900
      8 C18          5.9430     1.2150    -0.0260 c3         1 13V       0.116400
      9 C19          7.4620     1.1950    -0.1380 c3         1 13V       0.121400
     10 O3           7.9780     1.0280     1.1830 os         1 13V      -0.431600
     11 C20          9.3930     0.9540     1.2040 c3         1 13V       0.115700
     12 C14          3.4290    -0.4300     1.2850 ca         1 13V       0.595100
     13 C11          4.0700    -0.2740     2.5740 cc         1 13V      -0.252000
     14 C10          5.4550    -0.2980     2.8080 cd         1 13V      -0.036100
     15 N1           5.7140    -0.1410     4.1620 na         1 13V      -0.181400
     16 C12          3.4290    -0.0860     3.8670 ca         1 13V      -0.054800
     17 C9           4.4970    -0.0020     4.8390 ca         1 13V      -0.057200
     18 C8           4.2330     0.1860     6.2040 ca         1 13V      -0.148000
     19 C7           2.9110     0.2940     6.5990 ca         1 13V      -0.091000
     20 C13          2.1090     0.0300     4.2990 ca         1 13V      -0.049000
     21 C6           1.8530     0.2200     5.6610 ca         1 13V      -0.009000
     22 C5           0.5270     0.3410     6.1190 cg         1 13V      -0.081000
     23 C4          -0.6030     0.4440     6.5010 c1         1 13V      -0.126100
     24 C1          -1.9720     0.5700     6.9590 c3         1 13V       0.243900
     25 C3          -2.7640    -0.6970     6.6280 c3         1 13V      -0.120100
     26 C2          -2.6390     1.7880     6.3140 c3         1 13V      -0.120100
     27 O1          -1.9230     0.7470     8.3830 oh         1 13V      -0.589800
     28 H1          -0.3160    -1.3230     0.8480 hn         1 13V       0.423800
     29 H2          -0.2840    -1.3770    -0.8360 hn         1 13V       0.423800
     30 H3           3.9890    -0.4380    -2.1160 h4         1 13V       0.031100
     31 H4           5.4980     1.7130    -0.9260 h1         1 13V       0.054200
     32 H5           5.6100     1.7310     0.9110 h1         1 13V       0.054200
     33 H6           7.8030     0.3460    -0.7880 h1         1 13V       0.044200
     34 H7           7.8240     2.1690    -0.5600 h1         1 13V       0.044200
     35 H8           9.8430     1.8910     0.7920 h1         1 13V       0.034700
     36 H9           9.7510     0.0710     0.6200 h1         1 13V       0.034700
     37 H10          9.6520     0.8400     2.2860 h1         1 13V       0.034700
     38 H11          6.2770    -0.4080     2.0870 h4         1 13V       0.207000
     39 H12          6.6060    -0.0950     4.5770 hn         1 13V       0.303700
     40 H13          5.0490     0.2460     6.9360 ha         1 13V       0.134000
     41 H14          2.6700     0.4420     7.6630 ha         1 13V       0.142000
     42 H15          1.2740    -0.0240     3.5850 ha         1 13V       0.161000
     43 H16         -2.3180    -1.5730     7.1580 hc         1 13V       0.047700
     44 H17         -3.8230    -0.5780     6.9580 hc         1 13V       0.047700
     45 H18         -2.7440    -0.8850     5.5300 hc         1 13V       0.047700
     46 H19         -2.1050     2.7190     6.6180 hc         1 13V       0.047700
     47 H20         -3.7020     1.8560     6.6480 hc         1 13V       0.047700
     48 H21         -2.6120     1.6960     5.2040 hc         1 13V       0.047700
     49 H22         -2.8390     0.8340     8.6720 ho         1 13V       0.400000
@<TRIPOS>BOND
     1     1     2 1   
     2     1    28 1   
     3     1    29 1   
     4     2     3 ar  
     5     2     4 ar  
     6     3    12 ar  
     7     4     5 ar  
     8     5     6 ar  
     9     5    30 1   
    10     6     7 1   
    11     6    12 ar  
    12     7     8 1   
    13     8     9 1   
    14     8    31 1   
    15     8    32 1   
    16     9    10 1   
    17     9    33 1   
    18     9    34 1   
    19    10    11 1   
    20    11    35 1   
    21    11    36 1   
    22    11    37 1   
    23    12    13 1   
    24    13    14 2   
    25    13    16 1   
    26    14    15 1   
    27    14    38 1   
    28    15    17 1   
    29    15    39 1   
    30    16    17 ar  
    31    16    20 ar  
    32    17    18 ar  
    33    18    19 ar  
    34    18    40 1   
    35    19    21 ar  
    36    19    41 1   
    37    20    21 ar  
    38    20    42 1   
    39    21    22 1   
    40    22    23 3   
    41    23    24 1   
    42    24    25 1   
    43    24    26 1   
    44    24    27 1   
    45    25    43 1   
    46    25    44 1   
    47    25    45 1   
    48    26    46 1   
    49    26    47 1   
    50    26    48 1   
    51    27    49 1   
@<TRIPOS>SUBSTRUCTURE
     1 13V         1 TEMP              0 ****  ****    0 ROOT
