@<TRIPOS>MOLECULE
13V
   49    51     1     0     0
SMALL
bcc


@<TRIPOS>ATOM
      1 N3           0.0000     0.0000     0.0000 nv         1 13V      -0.626500
      2 C15          1.3860     0.0000     0.0000 ca         1 13V       0.663900
      3 N2           2.0290     0.0000     1.1560 nb         1 13V      -0.595000
      4 N4           2.0300    -0.0060    -1.1570 nb         1 13V      -0.602000
      5 C16          3.3550    -0.0070    -1.2030 ca         1 13V       0.337200
      6 C17          4.0730    -0.0020    -0.0170 ca         1 13V      -0.071500
      7 O2           5.4330    -0.0020    -0.0270 os         1 13V      -0.330900
      8 C18          6.0730    -0.0030    -1.3050 c3         1 13V       0.248400
      9 C19          7.5910    -0.0030    -1.1150 c3         1 13V      -0.582600
     10 O3           7.9930    -1.2240    -0.4890 os         1 13V      -0.074600
     11 C20          9.4000    -1.3270    -0.2650 c3         1 13V       0.181700
     12 C14          3.3610    -0.0010     1.1930 ca         1 13V       0.477100
     13 C11          4.0790     0.0060     2.4860 cc         1 13V      -0.168000
     14 C10          5.4240     0.0170     2.6670 cd         1 13V      -0.250100
     15 N1           5.7100     0.0250     3.9990 na         1 13V       0.322600
     16 C12          3.4720     0.0070     3.8280 ca         1 13V      -0.086800
     17 C9           4.5460     0.0200     4.7370 ca         1 13V      -0.223200
     18 C8           4.2870     0.0240     6.1060 ca         1 13V      -0.112000
     19 C7           3.0010     0.0160     6.5620 ca         1 13V      -0.059000
     20 C13          2.1620     0.0030     4.2950 ca         1 13V      -0.002000
     21 C6           1.9260     0.0030     5.6660 ca         1 13V      -0.006000
     22 C5           0.5820    -0.0050     6.1610 cg         1 13V      -0.040000
     23 C4          -0.5130    -0.0200     6.5840 c1         1 13V      -0.158100
     24 C1          -1.8890     0.1920     6.8610 c3         1 13V       0.301900
     25 C3          -2.1580     0.3140     8.2640 c3         1 13V      -0.008100
     26 C2          -2.9970    -0.5190     6.1130 c3         1 13V      -0.008100
     27 O1          -2.6190     1.7690     6.5480 oh         1 13V      -0.688800
     28 H1          -0.5000    -0.8430    -0.2000 hn         1 13V       0.275800
     29 H2          -0.5000     0.8530     0.1550 hn         1 13V       0.275800
     30 H3           3.8640    -0.0120    -2.1590 h4         1 13V       0.003100
     31 H4           5.4710     0.5550    -2.0110 h1         1 13V       0.024200
     32 H5           6.1850    -1.0230    -1.6520 h1         1 13V       0.024200
     33 H6           7.8700    -0.8030    -0.4390 h1         1 13V       0.188700
     34 H7           7.9030     0.9470    -0.6980 h1         1 13V       0.188700
     35 H8           9.7100    -0.5640     0.4380 h1         1 13V       0.031367
     36 H9           9.6300    -2.3060     0.1400 h1         1 13V       0.031367
     37 H10          9.9260    -1.1910    -1.2020 h1         1 13V       0.031367
     38 H11          6.1110     0.7610     2.2820 h4         1 13V       0.142000
     39 H12          6.6250     0.0340     4.4040 hn         1 13V       0.121700
     40 H13          5.1090     0.0150     6.8120 ha         1 13V       0.101000
     41 H14          2.8040     0.0190     7.6270 ha         1 13V       0.108000
     42 H15          1.3360    -0.0210     3.5940 ha         1 13V       0.133000
     43 H16         -1.4670     1.0230     8.7040 hc         1 13V       0.019033
     44 H17         -3.1740     0.6630     8.4080 hc         1 13V       0.019033
     45 H18         -2.0370    -0.6510     8.7400 hc         1 13V       0.019033
     46 H19         -2.8600    -1.5900     6.1960 hc         1 13V       0.019033
     47 H20         -2.9710    -0.2320     5.0690 hc         1 13V       0.019033
     48 H21         -3.9550    -0.2440     6.5390 hc         1 13V       0.019033
     49 H22         -2.5700     1.9610     5.6260 ho         1 13V       0.370000
@<TRIPOS>BOND
     1     1     2 1   
     2     1    28 1   
     3     1    29 1   
     4     2     3 ar  
     5     2     4 ar  
     6     3    12 ar  
     7     4     5 ar  
     8     5     6 ar  
     9     5    30 1   
    10     6     7 1   
    11     6    12 ar  
    12     7     8 1   
    13     8     9 1   
    14     8    31 1   
    15     8    32 1   
    16     9    10 1   
    17     9    33 1   
    18     9    34 1   
    19    10    11 1   
    20    11    35 1   
    21    11    36 1   
    22    11    37 1   
    23    12    13 1   
    24    13    14 2   
    25    13    16 1   
    26    14    15 1   
    27    14    38 1   
    28    15    17 1   
    29    15    39 1   
    30    16    17 ar  
    31    16    20 ar  
    32    17    18 ar  
    33    18    19 ar  
    34    18    40 1   
    35    19    21 ar  
    36    19    41 1   
    37    20    21 ar  
    38    20    42 1   
    39    21    22 1   
    40    22    23 3   
    41    23    24 1   
    42    24    25 1   
    43    24    26 1   
    44    24    27 1   
    45    25    43 1   
    46    25    44 1   
    47    25    45 1   
    48    26    46 1   
    49    26    47 1   
    50    26    48 1   
    51    27    49 1   
@<TRIPOS>SUBSTRUCTURE
     1 13V         1 TEMP              0 ****  ****    0 ROOT
