@<TRIPOS>MOLECULE
molecule
   39    41     1     0     0
SMALL
bcc


@<TRIPOS>ATOM
      1 C1           0.0000     0.0000     0.0000 ca         1 13W      -0.097000
      2 C2           1.3800     0.0000     0.0000 ca         1 13W      -0.083000
      3 C3           2.0810     0.0000     1.2090 ca         1 13W      -0.031000
      4 C4           1.3810     0.0010     2.4160 ca         1 13W      -0.080000
      5 C5          -0.0100     0.0010     2.4060 ca         1 13W      -0.047000
      6 C6          -0.6970     0.0000     1.1920 ca         1 13W      -0.128000
      7 C7          -0.7610     0.0000     3.6850 cc         1 13W      -0.030000
      8 C8          -2.1540     0.0010     3.7420 cc         1 13W      -0.155000
      9 C9          -2.6640     0.0010     4.9700 cd         1 13W      -0.077400
     10 S1          -1.3680    -0.0000     6.1580 ss         1 13W      -0.198800
     11 C10         -0.1550    -0.0060     4.8870 cd         1 13W      -0.031100
     12 C11         -4.1370     0.0020     5.2960 c3         1 13W       0.278500
     13 C12         -4.3730    -0.7190     6.6260 c3         1 13W      -0.297400
     14 C13         -4.2290    -2.2040     6.4440 c          1 13W       0.748500
     15 N1          -4.3680    -2.8040     5.2530 n          1 13W      -0.418300
     16 C14         -4.5920    -2.0670     4.1020 c2         1 13W       0.652800
     17 N2          -4.8780    -0.7200     4.2460 nu         1 13W      -0.788200
     18 N3          -4.5360    -2.6220     2.9260 n2         1 13W      -0.985100
     19 C15         -4.6440     1.4420     5.3920 c3         1 13W      -0.101100
     20 C16         -4.2810    -4.2640     5.1660 c3         1 13W       0.085300
     21 O1          -3.9770    -2.8880     7.4130 o          1 13W      -0.644500
     22 C17          3.5130    -0.0010     1.2090 cg         1 13W       0.237800
     23 N4           4.6490    -0.0010     1.2280 n1         1 13W      -0.358800
     24 H1          -0.5940     0.1550    -0.8930 ha         1 13W       0.142000
     25 H2           1.9140     0.0470    -0.9410 ha         1 13W       0.145000
     26 H3           2.0660    -0.3050     3.1970 ha         1 13W       0.147000
     27 H4          -1.6420     0.1100     1.7090 ha         1 13W       0.168000
     28 H5          -2.7540     0.3270     2.9010 ha         1 13W       0.157000
     29 H6           0.6510     0.1390     5.5970 h4         1 13W       0.192000
     30 H7          -4.8800     0.1570     7.0110 hc         1 13W       0.165200
     31 H8          -3.5330    -1.3590     6.8680 hc         1 13W       0.165200
     32 H9          -4.9620    -2.3340     2.0670 hn         1 13W       0.464400
     33 H11         -4.1290     2.2550     5.8910 hc         1 13W       0.053700
     34 H12         -5.7230     1.5130     5.4550 hc         1 13W       0.053700
     35 H13         -4.4360     1.8600     4.4140 hc         1 13W       0.053700
     36 H14         -5.1930    -4.5070     4.6350 h1         1 13W       0.079033
     37 H15         -4.2370    -4.2800     6.2490 h1         1 13W       0.079033
     38 H16         -3.2480    -4.4050     4.8730 h1         1 13W       0.079033
     39 H17         -4.4550    -0.9360     3.3650 hn         1 13W       0.403800
@<TRIPOS>BOND
     1     1     6 ar  
     2     1     2 ar  
     3     6     5 ar  
     4    11    10 1   
     5    11     7 2   
     6    10     9 1   
     7     2     3 ar  
     8     5     7 1   
     9     5     4 ar  
    10     7     8 1   
    11     9     8 2   
    12     9    12 1   
    13    19    12 1   
    14     3     4 ar  
    15     3    22 1   
    16    12    13 1   
    17    12    17 1   
    18    22    23 3   
    19    13    14 1   
    20    17    16 1   
    21    14    21 2   
    22    14    15 1   
    23    16    15 1   
    24    16    18 2   
    25    15    20 1   
    26     1    24 1   
    27     2    25 1   
    28     4    26 1   
    29     6    27 1   
    30     8    28 1   
    31    11    29 1   
    32    13    30 1   
    33    13    31 1   
    34    18    32 1   
    35    19    33 1   
    36    19    34 1   
    37    19    35 1   
    38    20    36 1   
    39    20    37 1   
    40    20    38 1   
    41    17    39 1   
@<TRIPOS>SUBSTRUCTURE
     1 13W         1 TEMP              0 ****  ****    0 ROOT
