@<TRIPOS>MOLECULE
13W
   39    42     1     0     0
SMALL
bcc


@<TRIPOS>ATOM
      1 C1           0.0000     0.0000     0.0000 ca         1 13W      -0.080000
      2 C2           1.3800     0.0000     0.0000 ca         1 13W      -0.099000
      3 C3           2.0810     0.0000     1.2090 ca         1 13W       0.052000
      4 C4           1.3810     0.0010     2.4160 ca         1 13W      -0.078000
      5 C5          -0.0100     0.0010     2.4060 ca         1 13W      -0.046000
      6 C6          -0.6970     0.0000     1.1920 ca         1 13W      -0.069000
      7 C7          -0.7610     0.0000     3.6850 c2         1 13W      -0.085000
      8 C8          -2.1540     0.0010     3.7420 c2         1 13W      -0.122000
      9 C9          -2.6640     0.0010     4.9700 c2         1 13W      -0.307000
     10 S1          -1.3680    -0.0000     6.1580 ss         1 13W       0.322000
     11 C10         -0.1550    -0.0060     4.8870 c2         1 13W      -0.263000
     12 C11         -4.1370     0.0020     5.2960 c3         1 13W       0.088000
     13 C12         -4.3730    -0.7190     6.6260 c3         1 13W      -0.344000
     14 C13         -4.2290    -2.2040     6.4440 c3         1 13W       0.310000
     15 N1          -4.3680    -2.8040     5.2530 n3         1 13W       0.083000
     16 C14         -4.5920    -2.0670     4.1020 c2         1 13W      -0.064000
     17 N2          -4.8780    -0.7200     4.2460 n7         1 13W       0.024000
     18 N3          -4.5360    -2.6220     2.9260 n2         1 13W      -0.244000
     19 C15         -4.6440     1.4420     5.3920 c3         1 13W      -0.138000
     20 C16         -4.2810    -4.2640     5.1660 c3         1 13W      -0.114000
     21 O1          -3.9770    -2.8880     7.4130 o          1 13W      -0.419000
     22 C17          3.5130    -0.0010     1.2090 c1         1 13W      -0.103000
     23 N4           4.6490     0.0160     1.2170 n1         1 13W      -0.050000
     24 H1          -0.2270     0.1000    -1.0540 ha         1 13W       0.120000
     25 H2           1.8480    -0.2800    -0.9360 ha         1 13W       0.118000
     26 H3           1.8150    -0.0540     3.4060 ha         1 13W       0.120000
     27 H4          -1.7360    -0.0880     1.4830 ha         1 13W       0.128000
     28 H5          -2.6210     0.1430     2.7750 ha         1 13W       0.145000
     29 H6           0.9270     0.0390     4.8400 h4         1 13W       0.165000
     30 H7          -3.5740    -1.3630     6.9740 DU         1 13W       0.166000
     31 H8          -4.6270     0.0650     7.3280 hc         1 13W       0.178000
     32 H9          -4.4510    -3.6160     2.8470 hn         1 13W       0.104000
     33 H11         -4.2860     2.1970     6.0810 hc         1 13W       0.067333
     34 H12         -5.5830     1.1780     5.8610 hc         1 13W       0.067333
     35 H13         -5.0480     1.6620     4.4110 hc         1 13W       0.067333
     36 H14         -3.5250    -4.9930     5.4300 h1         1 13W       0.064000
     37 H15         -4.7720    -4.5520     4.2450 h1         1 13W       0.064000
     38 H16         -5.1500    -4.5870     5.7270 h1         1 13W       0.064000
     39 H17         -4.5300    -0.6250     3.3130 hn         1 13W       0.107000
@<TRIPOS>BOND
     1     1     2 1   
     2     1     6 1   
     3     1    24 1   
     4     2     3 1   
     5     2    25 1   
     6     3     4 1   
     7     3    22 1   
     8     4     5 1   
     9     4    26 1   
    10     5     6 1   
    11     5     7 1   
    12     6    27 1   
    13     7     8 1   
    14     7    11 1   
    15     8     9 1   
    16     8    28 1   
    17     9    10 1   
    18     9    12 1   
    19    10    11 1   
    20    11    29 1   
    21    12    13 1   
    22    12    17 1   
    23    12    19 1   
    24    13    14 1   
    25    13    30 1   
    26    13    31 1   
    27    14    15 1   
    28    14    21 1   
    29    14    30 1   
    30    15    16 1   
    31    15    20 1   
    32    16    17 1   
    33    16    18 1   
    34    17    39 1   
    35    18    32 1   
    36    19    33 1   
    37    19    34 1   
    38    19    35 1   
    39    20    36 1   
    40    20    37 1   
    41    20    38 1   
    42    22    23 1   
@<TRIPOS>SUBSTRUCTURE
     1 13W         1 TEMP              0 ****  ****    0 ROOT
