@<TRIPOS>MOLECULE
13W
   39    41     1     0     0
SMALL
bcc


@<TRIPOS>ATOM
      1 C1           0.2010    -0.5820     0.1820 ca         1 13W      -0.134000
      2 C2           1.4470     0.0400     0.1250 ca         1 13W      -0.091000
      3 C3           1.9770     0.6280     1.2820 ca         1 13W      -0.016000
      4 C4           1.2620     0.5920     2.4860 ca         1 13W      -0.081000
      5 C5           0.0100    -0.0370     2.5390 ca         1 13W      -0.015000
      6 C6          -0.5140    -0.6220     1.3760 ca         1 13W      -0.100000
      7 C7          -0.7360    -0.0780     3.7810 cc         1 13W      -0.068000
      8 C8          -0.1210    -0.1170     5.0780 cc         1 13W      -0.126000
      9 C9          -1.0560    -0.1550     6.0920 cd         1 13W      -0.172400
     10 S1          -2.6200    -0.1430     5.4680 ss         1 13W       0.062200
     11 C10         -2.1180    -0.0870     3.8880 cd         1 13W      -0.164100
     12 C11         -0.7790    -0.2000     7.5720 c3         1 13W       0.296500
     13 C12         -0.8110     1.2330     8.1390 c3         1 13W      -0.148400
     14 C13          0.4470     2.0120     7.8480 c          1 13W       0.708500
     15 N1           1.6410     1.3140     7.6390 n          1 13W      -0.399300
     16 C14          1.7180    -0.1030     7.8490 c2         1 13W       0.644800
     17 N2           0.4850    -0.8470     7.9090 nu         1 13W      -0.833200
     18 N3           2.8950    -0.6490     8.0370 n2         1 13W      -0.850100
     19 C15         -1.9370    -0.9780     8.2410 c3         1 13W      -0.098100
     20 C16          2.8730     2.0470     7.4630 c3         1 13W       0.084300
     21 O1           0.4270     3.2540     7.7860 o          1 13W      -0.615500
     22 C17          3.2470     1.2670     1.2330 cg         1 13W       0.231800
     23 N4           4.2860     1.7880     1.1910 n1         1 13W      -0.359800
     24 H1          -0.2190    -1.0450    -0.7240 ha         1 13W       0.141000
     25 H2           2.0110     0.0700    -0.8190 ha         1 13W       0.146000
     26 H3           1.6800     1.0640     3.3880 ha         1 13W       0.151000
     27 H4          -1.4960    -1.1190     1.4130 ha         1 13W       0.139000
     28 H5           0.9640    -0.1150     5.2130 ha         1 13W       0.163000
     29 H6          -2.8090    -0.0510     3.0460 h4         1 13W       0.177000
     30 H7          -1.6810     1.7900     7.7050 hc         1 13W       0.092200
     31 H8          -0.9370     1.1970     9.2540 hc         1 13W       0.092200
     32 H9           2.8990    -1.6390     8.1520 hn         1 13W       0.401400
     33 H11         -1.7960    -1.0120     9.3480 hc         1 13W       0.052367
     34 H12         -2.9000    -0.4590     8.0160 hc         1 13W       0.052367
     35 H13         -1.9870    -2.0230     7.8540 hc         1 13W       0.052367
     36 H14          3.4870     2.0240     8.4020 h1         1 13W       0.059033
     37 H15          2.6330     3.1140     7.2050 h1         1 13W       0.059033
     38 H16          3.4660     1.5890     6.6280 h1         1 13W       0.059033
     39 H17          0.5620    -1.7460     7.4760 hn         1 13W       0.407800
@<TRIPOS>BOND
     1     1     2 ar  
     2     1     6 ar  
     3     1    24 1   
     4     2     3 ar  
     5     2    25 1   
     6     3     4 ar  
     7     3    22 1   
     8     4     5 ar  
     9     4    26 1   
    10     5     6 ar  
    11     5     7 1   
    12     6    27 1   
    13     7     8 1   
    14     7    11 2   
    15     8     9 2   
    16     8    28 1   
    17     9    10 1   
    18     9    12 1   
    19    10    11 1   
    20    11    29 1   
    21    12    13 1   
    22    12    17 1   
    23    12    19 1   
    24    13    14 1   
    25    13    30 1   
    26    13    31 1   
    27    14    15 1   
    28    14    21 2   
    29    15    16 1   
    30    15    20 1   
    31    16    17 1   
    32    16    18 2   
    33    17    39 1   
    34    18    32 1   
    35    19    33 1   
    36    19    34 1   
    37    19    35 1   
    38    20    36 1   
    39    20    37 1   
    40    20    38 1   
    41    22    23 3   
@<TRIPOS>SUBSTRUCTURE
     1 13W         1 TEMP              0 ****  ****    0 ROOT
