@<TRIPOS>MOLECULE
13X
   15    15     1     0     0
SMALL
bcc


@<TRIPOS>ATOM
      1 O9          0.0870    0.4240    0.1830 oh        1 13X     -0.491433
      2 C4          1.4510    0.2950    0.0800 ca        1 13X      0.193767
      3 C3          2.1540    0.1780    1.2880 ca        1 13X     -0.279000
      4 C2          3.5480    0.0440    1.2320 ca        1 13X      0.193767
      5 O8          4.3120   -0.0750    2.3680 oh        1 13X     -0.491433
      6 C5          2.1080    0.2810   -1.1570 ca        1 13X     -0.279000
      7 C6          3.5050    0.1450   -1.1680 ca        1 13X      0.193767
      8 O7          4.2250    0.1220   -2.3380 oh        1 13X     -0.491433
      9 C1          4.2450    0.0250    0.0150 ca        1 13X     -0.279000
     10 H1         -0.2770    0.4950   -0.7120 ho        1 13X      0.422667
     11 H2          1.6130    0.1920    2.2420 ha        1 13X      0.153667
     12 H3          3.7180   -0.0480    3.1330 ho        1 13X      0.422667
     13 H4          1.5450    0.3730   -2.0940 ha        1 13X      0.153667
     14 H5          3.6030    0.2120   -3.0760 ho        1 13X      0.422667
     15 H6          5.3370   -0.0800   -0.0090 ha        1 13X      0.153667
@<TRIPOS>BOND
     1    1    2 1   
     2    1   10 1   
     3    2    3 ar  
     4    2    6 ar  
     5    3    4 ar  
     6    3   11 1   
     7    4    5 1   
     8    4    9 ar  
     9    5   12 1   
    10    6    7 ar  
    11    6   13 1   
    12    7    8 1   
    13    7    9 ar  
    14    8   14 1   
    15    9   15 1   
@<TRIPOS>SUBSTRUCTURE
     1 13X         1 TEMP              0 ****  ****    0 ROOT
