@<TRIPOS>MOLECULE
molecule
   15    15     1     0     0
SMALL
bcc


@<TRIPOS>ATOM
      1 O9           0.0000     0.0000     0.0000 oh         1 13X      -0.516100
      2 C4           1.3590     0.0000     0.0000 ca         1 13X       0.132100
      3 C3           2.0520     0.0000     1.2000 ca         1 13X      -0.189667
      4 C2           3.4390     0.0010     1.2010 ca         1 13X       0.132100
      5 O8           4.1180     0.0010     2.3770 oh         1 13X      -0.516100
      6 C5           2.0520    -0.0050    -1.2010 ca         1 13X      -0.189667
      7 C6           3.4380    -0.0060    -1.2010 ca         1 13X       0.132100
      8 O7           4.1180    -0.0110    -2.3780 oh         1 13X      -0.516100
      9 C1           4.1320     0.0000     0.0000 ca         1 13X      -0.189667
     10 H1          -0.3140     0.8890    -0.0030 ho         1 13X       0.421000
     11 H2           1.5100    -0.0160     2.1380 ha         1 13X       0.153000
     12 H3           4.2730     0.8900     2.6500 ho         1 13X       0.421000
     13 H4           1.5100    -0.0370    -2.1380 ha         1 13X       0.153000
     14 H5           4.2730     0.8770    -2.6560 ho         1 13X       0.421000
     15 H6           5.2150     0.0010     0.0000 ha         1 13X       0.153000
@<TRIPOS>BOND
     1     8     7 1   
     2     9     7 ar  
     3     9     4 ar  
     4     7     6 ar  
     5     5     4 1   
     6     4     3 ar  
     7     6     2 ar  
     8     3     2 ar  
     9     2     1 1   
    10     1    10 1   
    11     3    11 1   
    12     5    12 1   
    13     6    13 1   
    14     8    14 1   
    15     9    15 1   
@<TRIPOS>SUBSTRUCTURE
     1 13X         1 TEMP              0 ****  ****    0 ROOT
