@<TRIPOS>MOLECULE
13X
   15    15     1     0     0
SMALL
bcc


@<TRIPOS>ATOM
      1 O9           0.0170     0.0330     0.1370 oh         1 13X      -0.491433
      2 C4           1.3910     0.0140     0.1050 ca         1 13X       0.193767
      3 C3           2.0400     0.1590     1.3380 ca         1 13X      -0.279000
      4 C2           3.4420     0.1440     1.3490 ca         1 13X       0.193767
      5 O8           4.0380     0.2900     2.5790 oh         1 13X      -0.491433
      6 C5           2.1040    -0.1430    -1.0930 ca         1 13X      -0.279000
      7 C6           3.5040    -0.1520    -1.0370 ca         1 13X       0.193767
      8 O7           4.2810    -0.3000    -2.1610 oh         1 13X      -0.491433
      9 C1           4.1930    -0.0100     0.1760 ca         1 13X      -0.279000
     10 H1          -0.3060    -0.0750    -0.7690 ho         1 13X       0.422667
     11 H2           1.4680     0.2810     2.2670 ha         1 13X       0.153667
     12 H3           4.9980     0.2630     2.4520 ho         1 13X       0.422667
     13 H4           1.5790    -0.2560    -2.0490 ha         1 13X       0.153667
     14 H5           3.6910    -0.3880    -2.9250 ho         1 13X       0.422667
     15 H6           5.2900    -0.0200     0.1900 ha         1 13X       0.153667
@<TRIPOS>BOND
     1     1     2 1   
     2     1    10 1   
     3     2     3 ar  
     4     2     6 ar  
     5     3     4 ar  
     6     3    11 1   
     7     4     5 1   
     8     4     9 ar  
     9     5    12 1   
    10     6     7 ar  
    11     6    13 1   
    12     7     8 1   
    13     7     9 ar  
    14     8    14 1   
    15     9    15 1   
@<TRIPOS>SUBSTRUCTURE
     1 13X         1 TEMP              0 ****  ****    0 ROOT
