@<TRIPOS>MOLECULE
molecule
   68    71     1     0     0
SMALL
bcc


@<TRIPOS>ATOM
      1 C2           0.0000     0.0000     0.0000 ca         1 13Y       0.035400
      2 C4           2.0780     0.0000     1.1960 ca         1 13Y      -0.120000
      3 C5           1.3910     0.0000     2.3950 ca         1 13Y      -0.136000
      4 C6           0.0030    -0.0060     2.3980 ca         1 13Y       0.140100
      5 Cl1         -0.8680     0.0070    -1.5030 cl         1 13Y      -0.127400
      6 C3           1.3830     0.0000     0.0000 ca         1 13Y      -0.149000
      7 C7          -0.6920     0.0000     1.1970 ca         1 13Y      -0.148000
      8 O8          -0.6750    -0.0060     3.5760 os         1 13Y      -0.183200
      9 C9          -1.2860    -1.1540     3.9580 ca         1 13Y       0.143100
     10 C10         -2.0210    -1.1970     5.1520 ca         1 13Y      -0.114600
     11 C11         -2.6470    -2.3860     5.5350 ca         1 13Y      -0.074000
     12 C12         -2.5400    -3.5060     4.7400 ca         1 13Y      -0.173000
     13 C13         -1.8120    -3.4610     3.5630 ca         1 13Y      -0.083300
     14 C14         -1.1920    -2.2900     3.1680 ca         1 13Y      -0.239000
     15 C15         -1.7010    -4.6930     2.7020 c3         1 13Y       0.225800
     16 C16         -0.6340    -5.6240     3.2820 c3         1 13Y      -0.068400
     17 C17          0.7380    -4.9530     3.1840 c3         1 13Y      -0.080700
     18 C18          1.7800    -5.8180     3.8940 c3         1 13Y      -0.087100
     19 C19          1.1240    -4.7930     1.7120 c3         1 13Y      -0.087100
     20 N20         -2.9940    -5.3870     2.6720 n3         1 13Y      -0.725600
     21 C22         -2.9110    -6.6220     1.8830 c3         1 13Y       0.154800
     22 C23         -4.2290    -7.3910     1.9930 c3         1 13Y      -0.074400
     23 C24         -5.3720    -6.5120     1.4790 c3         1 13Y      -0.105400
     24 C25         -5.4060    -5.2110     2.2870 c3         1 13Y       0.123700
     25 C26         -4.0540    -4.5060     2.1670 c3         1 13Y       0.138800
     26 N27         -6.4610    -4.3390     1.7630 n          1 13Y      -0.355000
     27 C28         -7.4840    -3.9460     2.5830 cc         1 13Y       0.044600
     28 C29         -8.4560    -3.1420     2.1000 cd         1 13Y      -0.289400
     29 C30         -8.3940    -2.7210     0.7500 c          1 13Y       0.711700
     30 O31         -9.2590    -1.9950     0.2930 o          1 13Y      -0.634500
     31 N32         -7.3700    -3.1310    -0.0250 ns         1 13Y      -0.560500
     32 C34         -6.4120    -3.9280     0.4830 c          1 13Y       0.810500
     33 O35         -5.4940    -4.2900    -0.2280 o          1 13Y      -0.663500
     34 C36         -9.5900    -2.6980     2.9870 c3         1 13Y      -0.010900
     35 C37         -2.1330     0.0050     5.9980 c          1 13Y       0.880200
     36 O38         -2.8400    -0.0410     7.1450 o          1 13Y      -0.826300
     37 O39         -1.5870     1.0360     5.6620 o          1 13Y      -0.826300
     38 H1           3.1610     0.0020     1.1930 ha         1 13Y       0.129000
     39 H2           1.9360    -0.0020     3.3310 ha         1 13Y       0.153000
     40 H3           1.9240    -0.0000    -0.9390 ha         1 13Y       0.131000
     41 H4          -1.7750    -0.0050     1.1980 ha         1 13Y       0.162000
     42 H5          -3.2180    -2.4270     6.4550 ha         1 13Y       0.162000
     43 H6          -3.0240    -4.4280     5.0390 ha         1 13Y       0.126000
     44 H7          -0.6250    -2.2620     2.2460 ha         1 13Y       0.125000
     45 H8          -1.4210    -4.4060     1.6950 h1         1 13Y       0.031700
     46 H9          -0.6220    -6.5520     2.7220 hc         1 13Y       0.044700
     47 H10         -0.8610    -5.8320     4.3200 hc         1 13Y       0.044700
     48 H11          0.6970    -3.9780     3.6550 hc         1 13Y       0.077700
     49 H12          1.4920    -5.9540     4.9290 hc         1 13Y       0.029700
     50 H13          1.8420    -6.7830     3.4060 hc         1 13Y       0.029700
     51 H14          2.7460    -5.3290     3.8490 hc         1 13Y       0.029700
     52 H15          1.0090    -5.7420     1.2040 hc         1 13Y       0.029700
     53 H16          2.1550    -4.4670     1.6430 hc         1 13Y       0.029700
     54 H17          0.4800    -4.0550     1.2490 hc         1 13Y       0.029700
     55 H19         -2.7260    -6.3740     0.8450 h1         1 13Y       0.038700
     56 H20         -2.1030    -7.2370     2.2610 h1         1 13Y       0.038700
     57 H21         -4.4100    -7.6490     3.0300 hc         1 13Y       0.044200
     58 H22         -4.1710    -8.2930     1.3960 hc         1 13Y       0.044200
     59 H23         -6.3120    -7.0360     1.5980 hc         1 13Y       0.058700
     60 H24         -5.2080    -6.2830     0.4330 hc         1 13Y       0.058700
     61 H25         -5.6030    -5.4390     3.3280 h1         1 13Y       0.078700
     62 H26         -3.8610    -4.2720     1.1270 h1         1 13Y       0.071700
     63 H27         -4.0710    -3.5940     2.7510 h1         1 13Y       0.071700
     64 H28         -7.5150    -4.2780     3.6130 h4         1 13Y       0.169000
     65 H29         -7.3190    -2.8370    -0.9800 hn         1 13Y       0.358500
     66 H30        -10.5320    -3.0170     2.5570 hc         1 13Y       0.045367
     67 H31         -9.5800    -1.6180     3.0740 hc         1 13Y       0.045367
     68 H32         -9.4750    -3.1400     3.9700 hc         1 13Y       0.045367
@<TRIPOS>BOND
     1    30    29 2   
     2    31    29 1   
     3    31    32 1   
     4    29    28 1   
     5    33    32 2   
     6    32    26 1   
     7    28    34 1   
     8    28    27 2   
     9     5     1 1   
    10    26    27 1   
    11    26    24 1   
    12     6     1 ar  
    13     6     2 ar  
    14     1     7 ar  
    15    24    25 1   
    16    24    23 1   
    17     2     3 ar  
    18     7     4 ar  
    19    25    20 1   
    20    19    17 1   
    21    23    22 1   
    22     3     4 ar  
    23     4     8 1   
    24    16    17 1   
    25    16    15 1   
    26    20    15 1   
    27    20    21 1   
    28    17    18 1   
    29    22    21 1   
    30     8     9 1   
    31    14     9 ar  
    32    14    13 ar  
    33    15    13 1   
    34     9    10 ar  
    35    13    12 ar  
    36    10    11 ar  
    37    10    35 1   
    38    12    11 ar  
    39    37    35 1   
    40    35    36 1   
    41     2    38 1   
    42     3    39 1   
    43     6    40 1   
    44     7    41 1   
    45    11    42 1   
    46    12    43 1   
    47    14    44 1   
    48    15    45 1   
    49    16    46 1   
    50    16    47 1   
    51    17    48 1   
    52    18    49 1   
    53    18    50 1   
    54    18    51 1   
    55    19    52 1   
    56    19    53 1   
    57    19    54 1   
    58    21    55 1   
    59    21    56 1   
    60    22    57 1   
    61    22    58 1   
    62    23    59 1   
    63    23    60 1   
    64    24    61 1   
    65    25    62 1   
    66    25    63 1   
    67    27    64 1   
    68    31    65 1   
    69    34    66 1   
    70    34    67 1   
    71    34    68 1   
@<TRIPOS>SUBSTRUCTURE
     1 13Y         1 TEMP              0 ****  ****    0 ROOT
