@<TRIPOS>MOLECULE
13Y
   68    71     1     0     0
SMALL
bcc


@<TRIPOS>ATOM
      1 C2           1.2440    -0.4300     0.2400 ca         1 13Y       0.016400
      2 C4           2.6870     0.7240     1.7880 ca         1 13Y      -0.117000
      3 C5           1.6990     0.6780     2.7660 ca         1 13Y      -0.146000
      4 C6           0.4780     0.0560     2.4660 ca         1 13Y       0.123100
      5 Cl1          0.9680    -1.0900    -1.3100 cl         1 13Y      -0.127400
      6 C3           2.4730     0.1690     0.5250 ca         1 13Y      -0.164000
      7 C7           0.2340    -0.5010     1.2020 ca         1 13Y      -0.155000
      8 O8          -0.5880     0.0410     3.3590 os         1 13Y      -0.248200
      9 C9          -0.2800    -0.4540     4.6350 ca         1 13Y       0.081100
     10 C10         -0.1030     0.4100     5.7210 ca         1 13Y      -0.086600
     11 C11          0.0160    -0.1690     6.9930 ca         1 13Y      -0.116000
     12 C12         -0.0070    -1.5470     7.1670 ca         1 13Y      -0.138000
     13 C13         -0.1570    -2.4040     6.0660 ca         1 13Y      -0.150300
     14 C14         -0.2940    -1.8500     4.7950 ca         1 13Y      -0.141000
     15 C15         -0.1460    -3.8970     6.2960 c3         1 13Y       0.234800
     16 C16         -1.3290    -4.5800     5.5880 c3         1 13Y      -0.068400
     17 C17         -2.6520    -4.2260     6.2550 c3         1 13Y      -0.072700
     18 C18         -2.8950    -5.0740     7.4870 c3         1 13Y      -0.087600
     19 C19         -3.7920    -4.4030     5.2720 c3         1 13Y      -0.087600
     20 N20          1.1360    -4.5590     6.0060 n3         1 13Y      -0.722600
     21 C22          2.2100    -4.0340     6.8450 c3         1 13Y       0.157800
     22 C23          3.5440    -4.7400     6.6210 c3         1 13Y      -0.076400
     23 C24          3.9310    -4.7400     5.1590 c3         1 13Y      -0.093400
     24 C25          2.7950    -5.3760     4.3450 c3         1 13Y       0.096700
     25 C26          1.4870    -4.5720     4.5940 c3         1 13Y       0.152800
     26 N27          3.1090    -5.4810     2.9230 n          1 13Y      -0.363000
     27 C28          3.3310    -4.3510     2.1530 cc         1 13Y       0.045600
     28 C29          3.6950    -4.4070     0.8390 cd         1 13Y      -0.260400
     29 C30          3.8620    -5.7150     0.1850 c          1 13Y       0.717700
     30 O31          4.1890    -5.8970    -1.0010 o          1 13Y      -0.626500
     31 N32          3.6290    -6.8450     0.9900 ns         1 13Y      -0.588500
     32 C34          3.2650    -6.7660     2.3430 c          1 13Y       0.805500
     33 O35          3.0900    -7.8170     3.0000 o          1 13Y      -0.653500
     34 C36          3.9380    -3.1990     0.0280 c3         1 13Y      -0.037900
     35 C37         -0.0010     1.9300     5.6160 c          1 13Y       0.921200
     36 O38         -1.0000     2.6130     5.9550 o          1 13Y      -0.812800
     37 O39          1.1120     2.4000     5.2430 o          1 13Y      -0.812800
     38 H1           3.6440     1.2190     2.0090 ha         1 13Y       0.134000
     39 H2           1.8340     1.1590     3.7600 ha         1 13Y       0.226000
     40 H3           3.2600     0.2150    -0.2410 ha         1 13Y       0.133000
     41 H4          -0.7390    -0.9610     0.9820 ha         1 13Y       0.152000
     42 H5           0.1300     0.4990     7.8610 ha         1 13Y       0.143000
     43 H6           0.0960    -1.9730     8.1760 ha         1 13Y       0.113000
     44 H7          -0.4250    -2.4860     3.9080 ha         1 13Y       0.126000
     45 H8          -0.2990    -4.0690     7.4100 h1         1 13Y       0.056700
     46 H9          -1.3620    -4.2620     4.5140 hc         1 13Y       0.045200
     47 H10         -1.1930    -5.6940     5.6070 hc         1 13Y       0.045200
     48 H11         -2.6160    -3.1420     6.5640 hc         1 13Y       0.071700
     49 H12         -2.9620    -6.1550     7.2140 hc         1 13Y       0.029867
     50 H13         -3.8520    -4.7730     7.9780 hc         1 13Y       0.029867
     51 H14         -2.0660    -4.9460     8.2230 hc         1 13Y       0.029867
     52 H15         -3.8240    -5.4530     4.8910 hc         1 13Y       0.029867
     53 H16         -4.7670    -4.1760     5.7660 hc         1 13Y       0.029867
     54 H17         -3.6680    -3.7130     4.4030 hc         1 13Y       0.029867
     55 H19          2.3540    -2.9240     6.6860 h1         1 13Y       0.044200
     56 H20          1.9000    -4.1840     7.9180 h1         1 13Y       0.044200
     57 H21          3.4860    -5.7950     6.9960 hc         1 13Y       0.048200
     58 H22          4.3290    -4.2070     7.2180 hc         1 13Y       0.048200
     59 H23          4.8810    -5.3160     5.0170 hc         1 13Y       0.048200
     60 H24          4.1120    -3.6880     4.8130 hc         1 13Y       0.048200
     61 H25          2.6360    -6.4330     4.7240 h1         1 13Y       0.110700
     62 H26          1.6110    -3.5270     4.1820 h1         1 13Y       0.046700
     63 H27          0.6440    -5.0690     4.0370 h1         1 13Y       0.046700
     64 H28          3.1890    -3.3830     2.6740 h4         1 13Y       0.179000
     65 H29          3.7170    -7.7580     0.5990 hn         1 13Y       0.345500
     66 H30          3.3090    -2.3400     0.3780 hc         1 13Y       0.054367
     67 H31          3.7000    -3.4020    -1.0460 hc         1 13Y       0.054367
     68 H32          5.0150    -2.9010     0.0960 hc         1 13Y       0.054367
@<TRIPOS>BOND
     1     1     5 1   
     2     1     6 ar  
     3     1     7 ar  
     4     2     3 ar  
     5     2     6 ar  
     6     2    38 1   
     7     3     4 ar  
     8     3    39 1   
     9     4     7 ar  
    10     4     8 1   
    11     6    40 1   
    12     7    41 1   
    13     8     9 1   
    14     9    10 ar  
    15     9    14 ar  
    16    10    11 ar  
    17    10    35 1   
    18    11    12 ar  
    19    11    42 1   
    20    12    13 ar  
    21    12    43 1   
    22    13    14 ar  
    23    13    15 1   
    24    14    44 1   
    25    15    16 1   
    26    15    20 1   
    27    15    45 1   
    28    16    17 1   
    29    16    46 1   
    30    16    47 1   
    31    17    18 1   
    32    17    19 1   
    33    17    48 1   
    34    18    49 1   
    35    18    50 1   
    36    18    51 1   
    37    19    52 1   
    38    19    53 1   
    39    19    54 1   
    40    20    21 1   
    41    20    25 1   
    42    21    22 1   
    43    21    55 1   
    44    21    56 1   
    45    22    23 1   
    46    22    57 1   
    47    22    58 1   
    48    23    24 1   
    49    23    59 1   
    50    23    60 1   
    51    24    25 1   
    52    24    26 1   
    53    24    61 1   
    54    25    62 1   
    55    25    63 1   
    56    26    27 1   
    57    26    32 1   
    58    27    28 2   
    59    27    64 1   
    60    28    29 1   
    61    28    34 1   
    62    29    30 2   
    63    29    31 1   
    64    31    32 1   
    65    31    65 1   
    66    32    33 2   
    67    34    66 1   
    68    34    67 1   
    69    34    68 1   
    70    35    36 1   
    71    35    37 1   
@<TRIPOS>SUBSTRUCTURE
     1 13Y         1 TEMP              0 ****  ****    0 ROOT
