@<TRIPOS>MOLECULE
13Z
   56    52     1     0     0
SMALL
bcc


@<TRIPOS>ATOM
      1 C1          0.6250   -0.0940   -1.7370 c2        1 13Z     -0.194000
      2 C2         -0.0350    0.7970   -0.9910 c2        1 13Z     -0.171000
      3 C3          1.7120    0.1210    0.5320 c1        1 13Z     -0.007000
      4 C4          0.0400   -0.7480    3.5990 c1        1 13Z     -0.174000
      5 C6         -2.6320   -0.8810    3.2660 c3        1 13Z     -0.117000
      6 C7          0.1550   -1.4720   -2.0810 c3        1 13Z      0.146000
      7 N1         -0.3740   -0.1890    2.4820 n         1 13Z     -0.232000
      8 N2         -1.2280   -1.9460    0.1030 n2        1 13Z     -0.121000
      9 N3         -1.5090   -3.0600    0.7700 n2        1 13Z     -0.149000
     10 N4         -4.0540   -0.6390    3.0640 n3        1 13Z     -0.113000
     11 C8         -0.4430   -2.2450   -0.9450 c2        1 13Z     -0.051000
     12 F1          2.5080    1.1370    0.4430 f         1 13Z     -0.058000
     13 O1         -2.2690    0.6360    1.4000 o         1 13Z     -0.307000
     14 O2          1.2900   -2.1640   -2.5800 oh        1 13Z     -0.303000
     15 C9         -0.9100   -4.1040    0.1670 c2        1 13Z      0.020000
     16 O3         -0.2070   -3.6300   -0.9530 os        1 13Z     -0.130000
     17 C12         0.5240   -5.8650    1.0860 c3        1 13Z     -0.212333
     18 C14        -1.9410   -5.9410    1.4540 c3        1 13Z     -0.212333
     19 C16        -1.0110   -6.3600   -0.8200 c3        1 13Z     -0.212333
     20 C11        -4.9490   -0.8200    4.0040 c2        1 13Z     -0.015000
     21 C13        -3.0090   -1.5680    6.9190 c3        1 13Z     -0.285500
     22 C15        -6.2640   -0.2380    4.0620 c1        1 13Z      0.117000
     23 C17        -1.1050   -3.8730    4.6810 c3        1 13Z     -0.285500
     24 O4         -7.4310   -0.6570    3.8140 oh        1 13Z     -0.035000
     25 H1          0.2160    0.1460    1.7010 hn        1 13Z      0.276000
     26 H2         -0.9900    0.5960   -0.4840 ha        1 13Z      0.146500
     27 H2A         1.5670    0.1710   -2.2560 ha        1 13Z      0.160000
     28 H3          0.3350    1.8290   -0.8780 ha        1 13Z      0.146500
     29 H4          1.1380   -0.8360    3.7180 ha        1 13Z      0.081000
     30 H4A         2.1330   -0.7970    0.0510 ha        1 13Z      0.046000
     31 H6         -0.7660   -2.8210    4.5260 hc        1 13Z      0.072125
     32 H6A        -2.3270   -0.6380    4.3300 h1        1 13Z      0.190000
     33 H7         -0.6420   -1.4000   -2.8840 h1        1 13Z      0.123000
     34 HN4        -2.4220   -1.9820    3.0880 h1        1 13Z      0.190000
     35 HO2         0.9830   -3.0050   -2.9450 ho        1 13Z      0.225000
     36 H12         0.6450   -5.3180    2.0520 hc        1 13Z      0.092222
     37 H12A        1.3390   -5.5580    0.3880 hc        1 13Z      0.092222
     38 H12B        0.6120   -6.9610    1.2810 hc        1 13Z      0.092222
     39 H14        -1.8130   -5.3900    2.4180 hc        1 13Z      0.092222
     40 H14A       -2.9440   -5.7010    1.0290 hc        1 13Z      0.092222
     41 H14B       -1.8930   -7.0380    1.6610 hc        1 13Z      0.092222
     42 H16        -0.9390   -7.4520   -0.5990 hc        1 13Z      0.092222
     43 H16A       -2.0070   -6.1520   -1.2780 hc        1 13Z      0.092222
     44 H16B       -0.2130   -6.0880   -1.5510 hc        1 13Z      0.092222
     45 H13        -1.0610   -4.1240    5.7630 hc        1 13Z      0.072125
     46 H13A       -2.4980   -2.1820    6.1430 hc        1 13Z      0.072125
     47 H13B       -3.0230   -0.4990    6.6110 hc        1 13Z      0.072125
     48 H15        -4.0480   -1.9340    7.0720 hc        1 13Z      0.072125
     49 H15A       -2.4500   -1.6590    7.8780 hc        1 13Z      0.072125
     50 H17        -4.5980   -1.2140    5.0020 h4        1 13Z      0.229000
     51 H17A       -2.1500   -3.9890    4.3160 hc        1 13Z      0.072125
     52 H17B       -0.4410   -4.5630    4.1150 hc        1 13Z      0.072125
     53 HO4        -7.5230   -1.5620    3.4240 ho        1 13Z      0.234000
     54 C5         -1.7720   -0.0680    2.2870 c2        1 13Z      0.334000
     55 C10        -0.8400   -5.5680    0.4710 c3        1 13Z      0.024000
     56 H42        -4.2980   -0.2480    2.1630 hn        1 13Z      0.289000
@<TRIPOS>BOND
     1    1    2 1   
     2    1    6 1   
     3    1   27 1   
     4    2   26 1   
     5    2   28 1   
     6    3   12 1   
     7    3   30 1   
     8    4    7 1   
     9    4   29 1   
    10    5   10 1   
    11    5   32 1   
    12    5   34 1   
    13    5   54 1   
    14    6   11 1   
    15    6   14 1   
    16    6   33 1   
    17    7   25 1   
    18    7   54 1   
    19    8    9 1   
    20    8   11 1   
    21    9   15 1   
    22   10   20 1   
    23   10   56 1   
    24   11   16 1   
    25   13   54 1   
    26   14   35 1   
    27   15   16 1   
    28   15   55 1   
    29   17   36 1   
    30   17   37 1   
    31   17   38 1   
    32   17   55 1   
    33   18   39 1   
    34   18   40 1   
    35   18   41 1   
    36   18   55 1   
    37   19   42 1   
    38   19   43 1   
    39   19   44 1   
    40   19   55 1   
    41   20   22 1   
    42   20   50 1   
    43   21   46 1   
    44   21   47 1   
    45   21   48 1   
    46   21   49 1   
    47   22   24 1   
    48   23   31 1   
    49   23   45 1   
    50   23   51 1   
    51   23   52 1   
    52   24   53 1   
@<TRIPOS>SUBSTRUCTURE
     1 13Z         1 TEMP              0 ****  ****    0 ROOT
