@<TRIPOS>MOLECULE
140
   57    56     1     0     0
SMALL
bcc


@<TRIPOS>ATOM
      1 C1          -3.7490    -0.5220     2.0670 c          1 140       0.926600
      2 O1          -4.1680    -1.3630     2.8800 o          1 140      -0.762800
      3 O2          -4.1680     0.6440     1.8230 o          1 140      -0.762800
      4 C2          -2.5260    -0.9950     1.1750 c3         1 140      -0.074200
      5 N           -2.1970     0.0400     0.1510 ny         1 140      -0.664800
      6 C3          -2.3780    -0.4430    -1.2490 c          1 140       0.551100
      7 O3          -1.4100    -0.9920    -1.7660 o          1 140      -0.466100
      8 C4          -3.6980    -0.1690    -1.9170 c3         1 140      -0.144400
      9 C5          -4.8890    -0.7480    -1.1840 c3         1 140      -0.108400
     10 C6          -4.8800    -2.2640    -1.1730 c3         1 140      -0.080400
     11 C7          -5.6780    -2.7970    -0.0010 c3         1 140      -0.097400
     12 C8          -5.6280    -4.3080     0.0610 c3         1 140      -0.071400
     13 C9          -6.3080    -4.8450     1.3040 c3         1 140      -0.074400
     14 C10         -5.4590    -4.6720     2.5460 c3         1 140      -0.093400
     15 C11         -6.1630    -5.2210     3.7680 c3         1 140      -0.072400
     16 C12         -5.3220    -5.0320     5.0120 c3         1 140      -0.082400
     17 C13         -6.0290    -5.5660     6.2390 c3         1 140      -0.077400
     18 C14         -5.1870    -5.3770     7.4830 c3         1 140      -0.079400
     19 C15         -5.8940    -5.9080     8.7120 c3         1 140      -0.078400
     20 C16         -5.0520    -5.7200     9.9550 c3         1 140      -0.079400
     21 C17         -5.7570    -6.2500    11.1850 c3         1 140      -0.080400
     22 C18         -4.9220    -6.0650    12.4250 c3         1 140      -0.092100
     23 H21         -1.6380    -1.1550     1.8380 hx         1 140       0.094200
     24 H22         -2.8040    -1.9590     0.6760 hx         1 140       0.094200
     25 HN          -1.2370     0.3610     0.2830 hn         1 140       0.463800
     26 H41         -3.6360    -0.6020    -2.9530 hc         1 140       0.093200
     27 H42         -3.8170     0.9460    -2.0090 hc         1 140       0.093200
     28 H51         -4.9320    -0.3490    -0.1310 hc         1 140       0.086200
     29 H52         -5.8190    -0.3860    -1.7000 hc         1 140       0.086200
     30 H61         -3.8250    -2.6430    -1.1090 hc         1 140       0.034700
     31 H62         -5.3040    -2.6540    -2.1350 hc         1 140       0.034700
     32 H71         -5.2720    -2.3670     0.9580 hc         1 140       0.065200
     33 H72         -6.7440    -2.4570    -0.0890 hc         1 140       0.065200
     34 H81         -6.1300    -4.7330    -0.8490 hc         1 140       0.032200
     35 H82         -4.5600    -4.6510     0.0410 hc         1 140       0.032200
     36 H91         -6.5270    -5.9360     1.1560 hc         1 140       0.037200
     37 H92         -7.2910    -4.3250     1.4480 hc         1 140       0.037200
     38 H101        -5.2230    -3.5830     2.7070 hc         1 140       0.056700
     39 H102        -4.4810    -5.2040     2.4080 hc         1 140       0.056700
     40 H111        -6.3830    -6.3120     3.6220 hc         1 140       0.033200
     41 H112        -7.1480    -4.7000     3.8980 hc         1 140       0.033200
     42 H121        -5.0980    -3.9410     5.1480 hc         1 140       0.046700
     43 H122        -4.3400    -5.5590     4.8850 hc         1 140       0.046700
     44 H131        -7.0110    -5.0370     6.3670 hc         1 140       0.036700
     45 H132        -6.2570    -6.6560     6.1000 hc         1 140       0.036700
     46 H141        -4.9600    -4.2870     7.6210 hc         1 140       0.040200
     47 H142        -4.2060    -5.9060     7.3560 hc         1 140       0.040200
     48 H151        -6.8750    -5.3790     8.8390 hc         1 140       0.038200
     49 H152        -6.1220    -6.9980     8.5730 hc         1 140       0.038200
     50 H161        -4.8240    -4.6300    10.0930 hc         1 140       0.039200
     51 H162        -4.0700    -6.2490     9.8280 hc         1 140       0.039200
     52 H171        -5.9860    -7.3400    11.0440 hc         1 140       0.037700
     53 H172        -6.7390    -5.7210    11.3090 hc         1 140       0.037700
     54 H181        -4.7050    -4.9830    12.5960 hc         1 140       0.031700
     55 H182        -3.9500    -6.6060    12.3310 hc         1 140       0.031700
     56 H183        -5.4610    -6.4620    13.3200 hc         1 140       0.031700
     57 HN3         -2.8610     0.8350     0.3450 hn         1 140       0.463800
@<TRIPOS>BOND
     1     1     2 1   
     2     1     3 1   
     3     1     4 1   
     4     4     5 1   
     5     4    23 1   
     6     4    24 1   
     7     5     6 1   
     8     5    25 1   
     9     5    57 1   
    10     6     7 2   
    11     6     8 1   
    12     8     9 1   
    13     8    26 1   
    14     8    27 1   
    15     9    10 1   
    16     9    28 1   
    17     9    29 1   
    18    10    11 1   
    19    10    30 1   
    20    10    31 1   
    21    11    12 1   
    22    11    32 1   
    23    11    33 1   
    24    12    13 1   
    25    12    34 1   
    26    12    35 1   
    27    13    14 1   
    28    13    36 1   
    29    13    37 1   
    30    14    15 1   
    31    14    38 1   
    32    14    39 1   
    33    15    16 1   
    34    15    40 1   
    35    15    41 1   
    36    16    17 1   
    37    16    42 1   
    38    16    43 1   
    39    17    18 1   
    40    17    44 1   
    41    17    45 1   
    42    18    19 1   
    43    18    46 1   
    44    18    47 1   
    45    19    20 1   
    46    19    48 1   
    47    19    49 1   
    48    20    21 1   
    49    20    50 1   
    50    20    51 1   
    51    21    22 1   
    52    21    52 1   
    53    21    53 1   
    54    22    54 1   
    55    22    55 1   
    56    22    56 1   
@<TRIPOS>SUBSTRUCTURE
     1 140         1 TEMP              0 ****  ****    0 ROOT
