@<TRIPOS>MOLECULE
molecule
   56    55     1     0     0
SMALL
bcc


@<TRIPOS>ATOM
      1 C1           0.0000     0.0000     0.0000 c          1 140       0.883600
      2 O1           1.2080     0.0000     0.0000 o          1 140      -0.847300
      3 O2          -0.6700     0.0000     1.1620 o          1 140      -0.847300
      4 C2          -0.7520    -0.0000    -1.3050 c3         1 140      -0.004000
      5 N            0.1990     0.0010    -2.4190 ns         1 140      -0.550900
      6 C3          -0.2500    -0.0010    -3.6900 c          1 140       0.640100
      7 O3          -1.4420    -0.0010    -3.9120 o          1 140      -0.652100
      8 C4           0.7290     0.0010    -4.8360 c3         1 140      -0.161400
      9 C5          -0.0340     0.0000    -6.1600 c3         1 140      -0.064400
     10 C6           0.9590     0.0010    -7.3230 c3         1 140      -0.086400
     11 C7           0.1950     0.0000    -8.6480 c3         1 140      -0.080400
     12 C8           1.1880     0.0010    -9.8090 c3         1 140      -0.082400
     13 C9           0.4240     0.0000   -11.1350 c3         1 140      -0.082400
     14 C10          1.4180     0.0010   -12.2980 c3         1 140      -0.082400
     15 C11          0.6530    -0.0000   -13.6220 c3         1 140      -0.082400
     16 C12          1.6470     0.0010   -14.7860 c3         1 140      -0.082400
     17 C13          0.8840    -0.0000   -16.1110 c3         1 140      -0.082400
     18 C14          1.8770     0.0010   -17.2740 c3         1 140      -0.081400
     19 C15          1.1130     0.0010   -18.5980 c3         1 140      -0.082400
     20 C16          2.1060     0.0010   -19.7620 c3         1 140      -0.082400
     21 C17          1.3420     0.0010   -21.0870 c3         1 140      -0.084400
     22 C18          2.3360     0.0010   -22.2500 c3         1 140      -0.092100
     23 H21         -1.3740    -0.8850    -1.3630 h1         1 140       0.044700
     24 H22         -1.3760     0.8830    -1.3620 h1         1 140       0.044700
     25 HN           1.1830     0.0020    -2.2360 hn         1 140       0.331500
     26 H41          1.3530    -0.8830    -4.7780 hc         1 140       0.050700
     27 H42          1.3510     0.8860    -4.7780 hc         1 140       0.050700
     28 H51         -0.6580     0.8840    -6.2170 hc         1 140       0.054700
     29 H52         -0.6570    -0.8850    -6.2170 hc         1 140       0.054700
     30 H61          1.5830    -0.8830    -7.2650 hc         1 140       0.035700
     31 H62          1.5820     0.8860    -7.2660 hc         1 140       0.035700
     32 H71         -0.4270    -0.8850    -8.7060 hc         1 140       0.041700
     33 H72         -0.4280     0.8840    -8.7060 hc         1 140       0.041700
     34 H81          1.8110     0.8850    -9.7520 hc         1 140       0.038700
     35 H82          1.8120    -0.8840    -9.7520 hc         1 140       0.038700
     36 H91         -0.1980    -0.8850   -11.1920 hc         1 140       0.040700
     37 H92         -0.1990     0.8840   -11.1920 hc         1 140       0.040700
     38 H101         2.0410    -0.8840   -12.2410 hc         1 140       0.039700
     39 H102         2.0400     0.8850   -12.2410 hc         1 140       0.039700
     40 H111         0.0320    -0.8850   -13.6800 hc         1 140       0.040700
     41 H112         0.0290     0.8840   -13.6800 hc         1 140       0.040700
     42 H121         2.2680     0.8870   -14.7280 hc         1 140       0.040200
     43 H122         2.2710    -0.8820   -14.7280 hc         1 140       0.040200
     44 H131         0.2620    -0.8860   -16.1680 hc         1 140       0.040700
     45 H132         0.2590     0.8830   -16.1690 hc         1 140       0.040700
     46 H141         2.5010    -0.8820   -17.2170 hc         1 140       0.040700
     47 H142         2.4990     0.8860   -17.2160 hc         1 140       0.040700
     48 H151         0.4890     0.8850   -18.6560 hc         1 140       0.040700
     49 H152         0.4910    -0.8840   -18.6560 hc         1 140       0.040700
     50 H161         2.7290     0.8860   -19.7040 hc         1 140       0.040700
     51 H162         2.7300    -0.8830   -19.7040 hc         1 140       0.040700
     52 H171         0.7200    -0.8840   -21.1440 hc         1 140       0.039700
     53 H172         0.7190     0.8850   -21.1450 hc         1 140       0.039700
     54 H181         2.9580     0.8860   -22.1930 hc         1 140       0.031367
     55 H182         2.9590    -0.8830   -22.1930 hc         1 140       0.031367
     56 H183         1.7940     0.0010   -23.1880 hc         1 140       0.031367
@<TRIPOS>BOND
     1     1     2 1   
     2     1     3 1   
     3     1     4 1   
     4     4     5 1   
     5     4    23 1   
     6     4    24 1   
     7     5     6 1   
     8     5    25 1   
     9     6     7 2   
    10     6     8 1   
    11     8     9 1   
    12     8    26 1   
    13     8    27 1   
    14     9    10 1   
    15     9    28 1   
    16     9    29 1   
    17    10    11 1   
    18    10    30 1   
    19    10    31 1   
    20    11    12 1   
    21    11    32 1   
    22    11    33 1   
    23    12    13 1   
    24    12    34 1   
    25    12    35 1   
    26    13    14 1   
    27    13    36 1   
    28    13    37 1   
    29    14    15 1   
    30    14    38 1   
    31    14    39 1   
    32    15    16 1   
    33    15    40 1   
    34    15    41 1   
    35    16    17 1   
    36    16    42 1   
    37    16    43 1   
    38    17    18 1   
    39    17    44 1   
    40    17    45 1   
    41    18    19 1   
    42    18    46 1   
    43    18    47 1   
    44    19    20 1   
    45    19    48 1   
    46    19    49 1   
    47    20    21 1   
    48    20    50 1   
    49    20    51 1   
    50    21    22 1   
    51    21    52 1   
    52    21    53 1   
    53    22    54 1   
    54    22    55 1   
    55    22    56 1   
@<TRIPOS>SUBSTRUCTURE
     1 140         1 TEMP              0 ****  ****    0 ROOT
