@<TRIPOS>MOLECULE
molecule
   15    16     1     0     0
SMALL
bcc


@<TRIPOS>ATOM
      1 O6           0.0000     0.0000     0.0000 o          1 141      -0.627500
      2 C6           1.2180     0.0000     0.0000 c          1 141       0.750100
      3 C5           1.9800     0.0000     1.2510 cc         1 141      -0.374600
      4 C7           1.6680    -0.0020     2.5930 cd         1 141       0.062700
      5 N8           2.8110    -0.0020     3.3030 na         1 141      -0.223400
      6 N9           3.9140    -0.0000     2.4380 na         1 141      -0.241400
      7 C4           3.4480     0.0000     1.1530 cc         1 141       0.196700
      8 N3           4.0010     0.0010    -0.0460 nd         1 141      -0.464400
      9 C2           3.2620     0.0020    -1.1540 c          1 141       0.866900
     10 N1           1.9200    -0.0040    -1.1570 ns         1 141      -0.588500
     11 H1           0.8090     0.5530     2.9500 h4         1 141       0.208000
     12 H2           2.8660    -0.0040     4.3020 hn         1 141       0.345700
     13 H4           1.4300    -0.0030    -2.0300 hn         1 141       0.352500
     14 H5           4.8760     0.0000     2.7140 hn         1 141       0.354700
     15 O2           3.8370     0.0030    -2.2270 o          1 141      -0.617500
@<TRIPOS>BOND
     1     5     4 1   
     2     5     6 1   
     3     4     3 2   
     4     6     7 1   
     5     3     7 1   
     6     3     2 1   
     7     7     8 2   
     8     2     1 2   
     9     2    10 1   
    10     8     9 1   
    11    10     9 1   
    12     9    15 2   
    13     4    11 1   
    14     5    12 1   
    15    10    13 1   
    16     6    14 1   
@<TRIPOS>SUBSTRUCTURE
     1 141         1 TEMP              0 ****  ****    0 ROOT
