@<TRIPOS>MOLECULE
141
   15    16     1     0     0
SMALL
bcc


@<TRIPOS>ATOM
      1 O6           0.1900     0.3320     0.1820 o          1 141      -0.606500
      2 C6           1.4130     0.1990     0.0020 c          1 141       0.749100
      3 C5           2.4030     0.1360     1.0740 cc         1 141      -0.304600
      4 C7           2.3520     0.2210     2.4400 cd         1 141       0.032700
      5 N8           3.6760     0.2120     2.9700 na         1 141      -0.219400
      6 N9           4.5810    -0.1160     1.9450 na         1 141      -0.175400
      7 C4           3.8410    -0.0210     0.6950 cc         1 141       0.091700
      8 N3           4.3090    -0.1000    -0.5230 nd         1 141      -0.331400
      9 C2           3.3260    -0.0640    -1.5710 c          1 141       0.834900
     10 N1           1.9400     0.0880    -1.2880 ns         1 141      -0.612500
     11 H1           1.4930     0.3440     3.1100 h4         1 141       0.203000
     12 H2           3.8120    -0.4130     3.7520 hn         1 141       0.281700
     13 H4           1.3120     0.1140    -2.0630 hn         1 141       0.348500
     14 H5           5.3730     0.5140     1.9810 hn         1 141       0.277700
     15 O2           3.6630    -0.1580    -2.7630 o          1 141      -0.570500
@<TRIPOS>BOND
     1     1     2 2   
     2     2     3 1   
     3     2    10 1   
     4     3     4 2   
     5     3     7 1   
     6     4     5 1   
     7     4    11 1   
     8     5     6 1   
     9     5    12 1   
    10     6     7 1   
    11     6    14 1   
    12     7     8 2   
    13     8     9 1   
    14     9    10 1   
    15     9    15 2   
    16    10    13 1   
@<TRIPOS>SUBSTRUCTURE
     1 141         1 TEMP              0 ****  ****    0 ROOT
