@<TRIPOS>MOLECULE
141
   15    16     1     0     0
SMALL
bcc


@<TRIPOS>ATOM
      1 O6           0.0000     0.0000     0.0000 o          1 141      -0.669500
      2 C6           1.2180     0.0000     0.0000 c          1 141       0.680100
      3 C5           1.9800     0.0000     1.2510 cc         1 141      -0.389600
      4 C7           1.6680    -0.0020     2.5930 cd         1 141      -0.055300
      5 N8           2.8110    -0.0020     3.3030 na         1 141       0.106600
      6 N9           3.9140    -0.0000     2.4380 na         1 141       0.075600
      7 C4           3.4480     0.0000     1.1530 cc         1 141       0.007700
      8 N3           4.0010     0.0010    -0.0460 nd         1 141      -0.377400
      9 C2           3.2620     0.0020    -1.1540 c          1 141       0.740900
     10 N1           1.9200    -0.0040    -1.1570 ns         1 141      -0.169500
     11 H1           0.8090     0.5530     2.9500 h4         1 141       0.160000
     12 H2           2.8660    -0.0040     4.3020 hn         1 141       0.172700
     13 H4           1.4300    -0.0030    -2.0300 hn         1 141       0.202500
     14 H5           4.8760     0.0000     2.7140 hn         1 141       0.180700
     15 O2           3.8370     0.0030    -2.2270 o          1 141      -0.666500
@<TRIPOS>BOND
     1     1     2 2   
     2     2     3 1   
     3     2    10 1   
     4     3     4 2   
     5     3     7 1   
     6     4     5 1   
     7     4    11 1   
     8     5     6 1   
     9     5    12 1   
    10     6     7 1   
    11     6    14 1   
    12     7     8 2   
    13     8     9 1   
    14     9    10 1   
    15     9    15 2   
    16    10    13 1   
@<TRIPOS>SUBSTRUCTURE
     1 141         1 TEMP              0 ****  ****    0 ROOT
