@<TRIPOS>MOLECULE
molecule
   31    31     1     0     0
SMALL
bcc


@<TRIPOS>ATOM
      1 NN           1.2910     0.0000     0.0000 ny         1 142      -0.764800
      2 N            1.8860    -0.9880     0.8440 nz         1 142      -1.052400
      3 CA           0.0000     0.0000     0.0000 c3         1 142       0.303200
      4 CB          -0.6250     0.0000     1.4250 c3         1 142      -0.050100
      5 CB1         -0.4910    -1.2410    -0.7670 c3         1 142      -0.148100
      6 CG          -0.6330    -1.3150     2.2100 ca         1 142      -0.145300
      7 CD1          0.2710    -1.5130     3.2600 ca         1 142      -0.142000
      8 CE1          0.3190    -2.7060     3.9800 ca         1 142       0.107100
      9 CD2         -1.5110    -2.3670     1.8940 ca         1 142      -0.096000
     10 CE2         -1.4760    -3.5950     2.6160 ca         1 142      -0.165000
     11 CZ          -0.5450    -3.7450     3.6670 ca         1 142       0.084100
     12 OH          -0.4470    -4.9050     4.4190 oh         1 142      -0.499100
     13 OE1          1.2230    -2.8800     5.0130 oh         1 142      -0.502100
     14 C           -0.4660     1.2690    -0.6970 c          1 142       1.014600
     15 O           -1.5050     1.2570    -1.4100 o          1 142      -0.481800
     16 OXT          0.3710     2.1990    -0.6850 o          1 142      -0.481800
     17 HNN          1.6070    -0.1530    -0.9370 hn         1 142       0.496300
     18 HN1          1.2560    -1.7600     0.9490 hn         1 142       0.366800
     19 HN2          2.7400    -1.3090     0.4330 hn         1 142       0.366800
     20 HB1         -1.6520     0.3320     1.3320 hc         1 142       0.119700
     21 HB2         -0.0910     0.7330     2.0180 hc         1 142       0.119700
     22 HB11        -1.5750    -1.2610    -0.7650 hc         1 142       0.107033
     23 HB12        -0.1330    -1.2000    -1.7880 hc         1 142       0.107033
     24 HB13        -0.1130    -2.1360    -0.2870 hc         1 142       0.107033
     25 HD1          0.9540    -0.7140     3.5230 ha         1 142       0.153000
     26 HD2         -2.2290    -2.2400     1.0930 ha         1 142       0.147000
     27 HE2         -2.1560    -4.4010     2.3640 ha         1 142       0.159000
     28 HH          -1.2840    -5.0970     4.8090 ho         1 142       0.449000
     29 HE1          0.9180    -2.4220     5.7790 ho         1 142       0.457000
     30 HN3          2.0850    -0.5870     1.7390 hn         1 142       0.366800
     31 HN21         1.6140     0.9010     0.2930 hn         1 142       0.496300
@<TRIPOS>BOND
     1     1     2 1   
     2     1     3 1   
     3     1    17 1   
     4     2    18 1   
     5     2    19 1   
     6     3     4 1   
     7     3     5 1   
     8     3    14 1   
     9     4     6 1   
    10     4    20 1   
    11     4    21 1   
    12     5    22 1   
    13     5    23 1   
    14     5    24 1   
    15     6     7 ar  
    16     6     9 ar  
    17     7     8 ar  
    18     7    25 1   
    19     8    11 ar  
    20     8    13 1   
    21     9    10 ar  
    22     9    26 1   
    23    10    11 ar  
    24    10    27 1   
    25    11    12 1   
    26    12    28 1   
    27    13    29 1   
    28    14    15 1   
    29    14    16 1   
    30    30     2 1   
    31    31     1 1   
@<TRIPOS>SUBSTRUCTURE
     1 142         1 TEMP              0 ****  ****    0 ROOT
