@<TRIPOS>MOLECULE
molecule
   30    30     1     0     0
SMALL
bcc


@<TRIPOS>ATOM
      1 NN           1.4680     0.0000     0.0000 n7         1 142      -0.490000
      2 N            1.8870    -0.0000    -1.3920 nz         1 142      -0.607400
      3 CA           0.0000     0.0000     0.0000 c3         1 142      -0.005800
      4 CB          -0.5110     0.0000     1.4420 c3         1 142       0.004900
      5 CB1         -0.5100    -1.2490    -0.7210 c3         1 142      -0.123100
      6 CG          -2.0170     0.0000     1.4410 ca         1 142      -0.082300
      7 CD1         -2.7070     1.1980     1.4470 ca         1 142      -0.092000
      8 CE1         -4.0920     1.2000     1.4420 ca         1 142       0.101100
      9 CD2         -2.7070    -1.1980     1.4400 ca         1 142      -0.125000
     10 CE2         -4.0890    -1.2020     1.4410 ca         1 142      -0.167000
     11 CZ          -4.7860    -0.0050     1.4410 ca         1 142       0.092100
     12 OH          -6.1470    -0.0090     1.4420 oh         1 142      -0.514100
     13 OE1         -4.7720     2.3770     1.4430 oh         1 142      -0.503100
     14 C           -0.5020     1.2300    -0.7100 c          1 142       0.855600
     15 O            0.2240     2.3590    -0.6900 o          1 142      -0.782300
     16 OXT         -1.5580     1.2000    -1.2960 o          1 142      -0.782300
     17 HNN          1.8010    -0.8300     0.4490 hn         1 142       0.359800
     18 HN1          1.1580     0.3840    -1.9600 hn         1 142       0.450467
     19 HN2          2.7150     0.5540    -1.4910 hn         1 142       0.450467
     20 HB1         -0.1510     0.8840     1.9530 hc         1 142       0.056700
     21 HB2         -0.1510    -0.8840     1.9530 hc         1 142       0.056700
     22 HB11        -0.0990    -1.2810    -1.7230 hc         1 142       0.045367
     23 HB12        -1.5920    -1.2180    -0.7760 hc         1 142       0.045367
     24 HB13        -0.2020    -2.1330    -0.1760 hc         1 142       0.045367
     25 HD1         -2.1640     2.1350     1.4480 ha         1 142       0.168000
     26 HD2         -2.1640    -2.1350     1.4400 ha         1 142       0.120000
     27 HE2         -4.6280    -2.1420     1.4400 ha         1 142       0.134000
     28 HH          -6.4600    -0.3340     0.6140 ho         1 142       0.422000
     29 HE1         -4.8330     2.7040     2.3250 ho         1 142       0.417000
     30 HN3          2.0720    -0.9390    -1.6840 hn         1 142       0.450467
@<TRIPOS>BOND
     1     1     2 1
     2     1     3 1
     3     1    17 1
     4     2    18 1
     5     2    19 1
     6     3     4 1
     7     3     5 1
     8     3    14 1
     9     4     6 1
    10     4    20 1
    11     4    21 1
    12     5    22 1
    13     5    23 1
    14     5    24 1
    15     6     7 ar
    16     6     9 ar
    17     7     8 ar
    18     7    25 1
    19     8    11 ar
    20     8    13 1
    21     9    10 ar
    22     9    26 1
    23    10    11 ar
    24    10    27 1
    25    11    12 1
    26    12    28 1
    27    13    29 1
    28    14    15 1
    29    14    16 1
    30    30     2 1
@<TRIPOS>SUBSTRUCTURE
     1 142         1 TEMP              0 ****  ****    0 ROOT
