@<TRIPOS>MOLECULE
144
   20    19     1     0     0
SMALL
bcc


@<TRIPOS>ATOM
      1 C1           0.0000     0.0000     0.0000 c3         1 144       0.026100
      2 N            1.4690     0.0000     0.0000 n4         1 144       0.004200
      3 C2           1.9590     0.0000     1.3850 c3         1 144       0.255267
      4 O2           3.3880    -0.0000     1.3850 oh         1 144      -0.585133
      5 C3           1.9580    -1.1990    -0.6920 c3         1 144       0.255267
      6 O3           1.4820    -2.3660    -0.0190 oh         1 144      -0.585133
      7 C4           1.9580     1.1990    -0.6920 c3         1 144       0.255267
      8 O4           1.4820     2.3660    -0.0190 oh         1 144      -0.585133
      9 H11         -0.3610    -0.0000    -1.0210 hx         1 144       0.078033
     10 H12         -0.3610     0.8840     0.5110 hx         1 144       0.078033
     11 H13         -0.3610    -0.8840     0.5110 hx         1 144       0.078033
     12 H21          1.5980    -0.8850     1.8960 hx         1 144       0.059033
     13 H22          1.5980     0.8850     1.8960 hx         1 144       0.059033
     14 HO2          3.7020    -0.0000     2.2740 ho         1 144       0.457333
     15 H31          1.5980    -1.1990    -1.7130 hx         1 144       0.059033
     16 H32          3.0420    -1.1990    -0.6920 hx         1 144       0.059033
     17 HO3          1.7430    -3.1340    -0.4990 ho         1 144       0.457333
     18 H41          3.0420     1.1990    -0.6920 hx         1 144       0.059033
     19 H42          1.5980     1.1990    -1.7130 hx         1 144       0.059033
     20 HO4          1.7430     3.1340    -0.4990 ho         1 144       0.457333
@<TRIPOS>BOND
     1     1     2 1   
     2     1     9 1   
     3     1    10 1   
     4     1    11 1   
     5     2     3 1   
     6     2     5 1   
     7     2     7 1   
     8     3     4 1   
     9     3    12 1   
    10     3    13 1   
    11     4    14 1   
    12     5     6 1   
    13     5    15 1   
    14     5    16 1   
    15     6    17 1   
    16     7     8 1   
    17     7    18 1   
    18     7    19 1   
    19     8    20 1   
@<TRIPOS>SUBSTRUCTURE
     1 144         1 TEMP              0 ****  ****    0 ROOT
