@<TRIPOS>MOLECULE
144
   20    19     1     0     0
SMALL
bcc


@<TRIPOS>ATOM
      1 C1           0.0280    -0.1400     0.1660 c3         1 144       0.079100
      2 N            1.4950     0.0150     0.0580 n4         1 144      -0.743800
      3 C2           2.1180     0.2560     1.4320 c3         1 144       0.336600
      4 O2           2.0550    -0.9060     2.2040 oh         1 144      -0.564133
      5 C3           1.8080     1.2210    -0.8360 c3         1 144       0.336600
      6 O3           3.1760     1.2860    -1.0940 oh         1 144      -0.564133
      7 C4           2.1270    -1.2380    -0.5380 c3         1 144       0.336600
      8 O4           1.9000    -1.2720    -1.9180 oh         1 144      -0.564133
      9 H11         -0.4330     0.8210     0.5180 hx         1 144       0.097700
     10 H12         -0.3970    -0.4080    -0.8390 hx         1 144       0.097700
     11 H13         -0.2060    -0.9580     0.8990 hx         1 144       0.097700
     12 H21          1.5870     1.1320     1.8970 hx         1 144       0.118533
     13 H22          3.2170     0.4720     1.2630 hx         1 144       0.118533
     14 HO2          1.2800    -0.8680     2.7840 ho         1 144       0.448000
     15 H31          1.1890     1.1110    -1.7700 hx         1 144       0.118533
     16 H32          1.5480     2.1550    -0.2570 hx         1 144       0.118533
     17 HO3          3.3720     0.7810    -1.9020 ho         1 144       0.448000
     18 H41          3.2480    -1.1450    -0.4060 hx         1 144       0.118533
     19 H42          1.7240    -2.1320     0.0150 hx         1 144       0.118533
     20 HO4          1.1410    -1.8430    -2.1080 ho         1 144       0.448000
@<TRIPOS>BOND
     1     1     2 1   
     2     1     9 1   
     3     1    10 1   
     4     1    11 1   
     5     2     3 1   
     6     2     5 1   
     7     2     7 1   
     8     3     4 1   
     9     3    12 1   
    10     3    13 1   
    11     4    14 1   
    12     5     6 1   
    13     5    15 1   
    14     5    16 1   
    15     6    17 1   
    16     7     8 1   
    17     7    18 1   
    18     7    19 1   
    19     8    20 1   
@<TRIPOS>SUBSTRUCTURE
     1 144         1 TEMP              0 ****  ****    0 ROOT
