@<TRIPOS>MOLECULE
145
   36    37     1     0     0
SMALL
bcc


@<TRIPOS>ATOM
      1 C1           0.0000     0.0000     0.0000 c3         1 145       0.335900
      2 C2           1.5300     0.0000     0.0000 c3         1 145       0.150100
      3 O2           2.0090    -1.1650    -0.6730 oh         1 145      -0.578800
      4 C3           2.0300     0.0000     1.4490 c3         1 145       0.156100
      5 O3           3.4510     0.1510     1.4670 oh         1 145      -0.569800
      6 C4           1.3770     1.1710     2.1920 c3         1 145       0.139100
      7 O4           1.8480     2.4050     1.6470 oh         1 145      -0.555800
      8 C5          -0.1420     1.0810     2.0270 c3         1 145       0.157100
      9 C6          -0.8060     2.2260     2.7960 c3         1 145       0.222400
     10 O6          -2.2260     2.0750     2.7430 oh         1 145      -0.589800
     11 O5          -0.4840     1.1760     0.6470 os         1 145      -0.373600
     12 O1'         -0.4740    -0.0320    -1.3480 os         1 145      -0.221900
     13 C1'         -1.8260    -0.1500    -1.2860 ca         1 145       0.227100
     14 C2'         -2.5740    -0.2010    -2.4530 ca         1 145      -0.493200
     15 C3'         -3.9470    -0.3280    -2.3880 ca         1 145       0.019000
     16 C4'         -4.5790    -0.3940    -1.1600 ca         1 145      -0.165000
     17 C5'         -3.8370    -0.3380     0.0070 ca         1 145       0.006000
     18 C6'         -2.4630    -0.2170    -0.0540 ca         1 145      -0.232000
     19 N1'         -1.8980    -0.1310    -3.7690 no         1 145       1.059200
     20 O2'         -2.5540    -0.1850    -4.7930 o          1 145      -0.453500
     21 O3'         -0.6870    -0.0190    -3.8260 o          1 145      -0.453500
     22 H1          -0.3570    -0.8730     0.5320 h2         1 145       0.019700
     23 H2           1.8900     0.8880    -0.5050 h1         1 145       0.052700
     24 HO2          2.6140    -0.9110    -1.3490 ho         1 145       0.410000
     25 H3           1.7530    -0.9320     1.9280 h1         1 145       0.012700
     26 HO3          3.8330    -0.5280     1.9980 ho         1 145       0.392000
     27 H4           1.6290     1.1150     3.2440 h1         1 145       0.008700
     28 HO4          2.4300     2.8190     2.2640 ho         1 145       0.393000
     29 H5          -0.4880     0.1310     2.4180 h1         1 145       0.019700
     30 H61         -0.4790     2.2060     3.8280 h1         1 145       0.001700
     31 H62         -0.5270     3.1720     2.3470 h1         1 145       0.001700
     32 HO6         -2.6310     2.7050     3.3160 ho         1 145       0.394000
     33 H3'         -4.5310    -0.3700    -3.2990 ha         1 145       0.130000
     34 H4'         -5.6570    -0.4910    -1.1110 ha         1 145       0.114000
     35 H5'         -4.3340    -0.3900     0.9680 ha         1 145       0.105000
     36 H6'         -1.8810    -0.1730     0.8590 ha         1 145       0.158000
@<TRIPOS>BOND
     1     1     2 1   
     2     1    11 1   
     3     1    12 1   
     4     1    22 1   
     5     2     3 1   
     6     2     4 1   
     7     2    23 1   
     8     3    24 1   
     9     4     5 1   
    10     4     6 1   
    11     4    25 1   
    12     5    26 1   
    13     6     7 1   
    14     6     8 1   
    15     6    27 1   
    16     7    28 1   
    17     8     9 1   
    18     8    11 1   
    19     8    29 1   
    20     9    10 1   
    21     9    30 1   
    22     9    31 1   
    23    10    32 1   
    24    12    13 1   
    25    13    14 ar  
    26    13    18 ar  
    27    14    15 ar  
    28    14    19 1   
    29    15    16 ar  
    30    15    33 1   
    31    16    17 ar  
    32    16    34 1   
    33    17    18 ar  
    34    17    35 1   
    35    18    36 1   
    36    19    20 1   
    37    19    21 1   
@<TRIPOS>SUBSTRUCTURE
     1 145         1 TEMP              0 ****  ****    0 ROOT
