@<TRIPOS>MOLECULE
molecule
   33    32     1     0     0
SMALL
bcc


@<TRIPOS>ATOM
      1 O1           0.0000     0.0000     0.0000 oh         1 148      -0.596800
      2 O2           3.9470    -0.1440     2.7780 oh         1 148      -0.596800
      3 O3           0.0210    -1.2490     2.2190 oh         1 148      -0.596800
      4 O4           3.3610     1.9230    -0.1930 oh         1 148      -0.621300
      5 O5           0.2930     0.9700     4.9150 oh         1 148      -0.621300
      6 N1           1.4300     1.1860     2.1410 n3         1 148      -0.632600
      7 C1           1.9390     0.0000     1.4430 c3         1 148       0.160200
      8 C2           1.4290     0.0000     0.0000 c3         1 148       0.116400
      9 C3           3.4680     0.0240     1.4420 c3         1 148       0.116400
     10 C4           1.4490    -1.2620     2.1550 c3         1 148       0.116400
     11 C5           1.3850     2.2710     1.1540 c3         1 148       0.116300
     12 C6           2.8090     2.7380     0.8420 c3         1 148       0.139400
     13 C7           0.0400     0.8950     2.5130 c3         1 148       0.116300
     14 C8           0.0160     0.0970     3.8170 c3         1 148       0.139400
     15 HO1         -0.3140    -0.2170    -0.8620 ho         1 148       0.385333
     16 HO2          4.8690    -0.3400     2.7590 ho         1 148       0.385333
     17 HO3         -0.3040    -2.1320     2.1570 ho         1 148       0.385333
     18 HO4          3.8770     2.4590    -0.7730 ho         1 148       0.389500
     19 HO5         -0.1250     0.6400     5.6930 ho         1 148       0.389500
     20 H21          1.7900    -0.8850    -0.5110 h1         1 148       0.046867
     21 H22          1.7900     0.8840    -0.5110 h1         1 148       0.046867
     22 H31          3.8150     0.9720     1.0510 h1         1 148       0.046867
     23 H32          3.8410    -0.7820     0.8210 h1         1 148       0.046867
     24 H41          1.8550    -1.2900     3.1590 h1         1 148       0.046867
     25 H42          1.7780    -2.1370     1.6080 h1         1 148       0.046867
     26 H51          0.8130     3.0990     1.5540 h1         1 148       0.067950
     27 H52          0.9150     1.9130     0.2460 h1         1 148       0.067950
     28 H61          2.7860     3.7710     0.5160 h1         1 148       0.038950
     29 H62          3.4190     2.6540     1.7330 h1         1 148       0.038950
     30 H71         -0.4300     0.3160     1.7270 h1         1 148       0.067950
     31 H72         -0.5000     1.8240     2.6480 h1         1 148       0.067950
     32 H81         -0.9620    -0.3500     3.9500 h1         1 148       0.038950
     33 H82          0.7670    -0.6830     3.7780 h1         1 148       0.038950
@<TRIPOS>BOND
     1     1     8 1
     2     1    15 1
     3     2     9 1
     4     2    16 1
     5     3    10 1
     6     3    17 1
     7     4    12 1
     8     4    18 1
     9     5    14 1
    10     5    19 1
    11     6     7 1
    12     6    11 1
    13     6    13 1
    14     7     8 1
    15     7     9 1
    16     7    10 1
    17     8    20 1
    18     8    21 1
    19     9    22 1
    20     9    23 1
    21    10    24 1
    22    10    25 1
    23    11    12 1
    24    11    26 1
    25    11    27 1
    26    12    28 1
    27    12    29 1
    28    13    14 1
    29    13    30 1
    30    13    31 1
    31    14    32 1
    32    14    33 1
@<TRIPOS>SUBSTRUCTURE
     1 148         1 TEMP              0 ****  ****    0 ROOT
