@<TRIPOS>MOLECULE
14A
   57    58     1     0     0
SMALL
bcc


@<TRIPOS>ATOM
      1 N1           3.0950     0.3090     1.5720 n2         1 14A      -0.599100
      2 C2           3.2740     1.0110     0.5310 c2         1 14A       0.633100
      3 N3           4.0230     2.3020     0.6630 nz         1 14A      -0.796600
      4 N4           2.8070     0.6770    -0.8910 ny         1 14A      -0.561500
      5 O5           2.9520     1.7550    -1.7110 os         1 14A      -0.267100
      6 C6           1.9840     1.9330    -2.8040 c3         1 14A       0.114400
      7 C7           1.7300     0.7040    -3.6360 c3         1 14A      -0.155400
      8 C8           2.9750     0.0390    -4.1940 c3         1 14A       0.121400
      9 O9           3.4280    -0.9160    -3.2100 os         1 14A      -0.438900
     10 C10          4.0860    -2.0180    -3.7640 ca         1 14A       0.081100
     11 C11          5.4750    -2.1050    -3.6100 ca         1 14A      -0.097000
     12 C12          6.1330    -3.2560    -4.0610 ca         1 14A       0.034400
     13 C13          5.4150    -4.2910    -4.6780 ca         1 14A      -0.085000
     14 C14          4.0330    -4.1720    -4.8490 ca         1 14A      -0.150600
     15 C15          3.3530    -3.0340    -4.3850 ca         1 14A      -0.084000
     16 Cl16         7.7990    -3.3970    -3.8650 cl         1 14A       0.020600
     17 C17          3.2040    -5.2380    -5.4630 c          1 14A       0.554700
     18 O18          2.0310    -5.4410    -5.1730 o          1 14A      -0.404100
     19 N19          3.8460    -6.0900    -6.5260 nx         1 14A      -0.578200
     20 C20          3.0460    -6.0700    -7.8070 c3         1 14A       0.171000
     21 C21          1.7460    -6.7890    -7.7920 c2         1 14A      -0.265200
     22 C22          1.4550    -7.7570    -8.6610 c2         1 14A      -0.100000
     23 C23          4.1920    -7.4520    -5.9660 c3         1 14A       0.124500
     24 C24          4.7610    -8.4410    -6.9990 c3         1 14A      -0.093400
     25 C25          4.5590    -9.8110    -6.3620 c3         1 14A      -0.083400
     26 C26          3.4150    -9.6820    -5.3630 c3         1 14A      -0.083400
     27 C27          3.0530    -8.2040    -5.2570 c3         1 14A      -0.093400
     28 HN1          2.6100    -0.5670     1.6370 hn         1 14A       0.549400
     29 HN31         4.2790     2.4640     1.6610 hn         1 14A       0.516467
     30 HN32         3.4310     3.0840     0.3360 hn         1 14A       0.516467
     31 HN4          3.3970    -0.1030    -1.2850 hn         1 14A       0.508300
     32 H61          1.0360     2.3410    -2.3600 h1         1 14A       0.132700
     33 H62          2.5390     2.7390    -3.3760 h1         1 14A       0.132700
     34 H71          1.1170    -0.0470    -3.0700 hc         1 14A       0.110200
     35 H72          1.0940     1.0420    -4.5090 hc         1 14A       0.110200
     36 H81          3.8070     0.7730    -4.3620 h1         1 14A       0.086700
     37 H82          2.7330    -0.4850    -5.1560 h1         1 14A       0.086700
     38 H11          6.0420    -1.2840    -3.1440 ha         1 14A       0.168000
     39 H13          5.9650    -5.1940    -4.9950 ha         1 14A       0.170000
     40 H15          2.2590    -2.9540    -4.5000 ha         1 14A       0.177000
     41 H201         2.8540    -4.9780    -8.0310 hx         1 14A       0.099200
     42 H202         3.7240    -6.4850    -8.6120 hx         1 14A       0.099200
     43 H21          1.0020    -6.4220    -7.0630 ha         1 14A       0.159000
     44 H221         0.4570    -8.2250    -8.6900 ha         1 14A       0.149000
     45 H222         2.1680    -8.1410    -9.4070 ha         1 14A       0.149000
     46 H23          5.0000    -7.2380    -5.1990 hx         1 14A       0.079700
     47 H241         5.8400    -8.2350    -7.2040 hc         1 14A       0.072200
     48 H242         4.2000    -8.3950    -7.9680 hc         1 14A       0.072200
     49 H251         5.4960   -10.1420    -5.8450 hc         1 14A       0.079950
     50 H252         4.3270   -10.5750    -7.1470 hc         1 14A       0.079950
     51 H261         3.7210   -10.0840    -4.3640 hc         1 14A       0.079950
     52 H262         2.5250   -10.2720    -5.6980 hc         1 14A       0.079950
     53 H271         2.0640    -8.0070    -5.7430 hc         1 14A       0.072200
     54 H272         2.9770    -7.8770    -4.1900 hc         1 14A       0.072200
     55 H33          4.8850     2.2690     0.0940 hn         1 14A       0.516467
     56 H42          1.8150     0.3650    -0.8540 hn         1 14A       0.508300
     57 H191         4.7480    -5.6550    -6.7710 hn         1 14A       0.445800
@<TRIPOS>BOND
     1     1     2 2   
     2     1    28 1   
     3     2     3 1   
     4     2     4 1   
     5     3    29 1   
     6     3    30 1   
     7     3    55 1   
     8     4     5 1   
     9     4    31 1   
    10     4    56 1   
    11     5     6 1   
    12     6     7 1   
    13     6    32 1   
    14     6    33 1   
    15     7     8 1   
    16     7    34 1   
    17     7    35 1   
    18     8     9 1   
    19     8    36 1   
    20     8    37 1   
    21     9    10 1   
    22    10    11 ar  
    23    10    15 ar  
    24    11    12 ar  
    25    11    38 1   
    26    12    13 ar  
    27    12    16 1   
    28    13    14 ar  
    29    13    39 1   
    30    14    15 ar  
    31    14    17 1   
    32    15    40 1   
    33    17    18 2   
    34    17    19 1   
    35    19    20 1   
    36    19    23 1   
    37    19    57 1   
    38    20    21 1   
    39    20    41 1   
    40    20    42 1   
    41    21    22 2   
    42    21    43 1   
    43    22    44 1   
    44    22    45 1   
    45    23    24 1   
    46    23    27 1   
    47    23    46 1   
    48    24    25 1   
    49    24    47 1   
    50    24    48 1   
    51    25    26 1   
    52    25    49 1   
    53    25    50 1   
    54    26    27 1   
    55    26    51 1   
    56    26    52 1   
    57    27    53 1   
    58    27    54 1   
@<TRIPOS>SUBSTRUCTURE
     1 14A         1 TEMP              0 ****  ****    0 ROOT
