@<TRIPOS>MOLECULE
molecule
   55    56     1     0     0
SMALL
bcc


@<TRIPOS>ATOM
      1 N1           0.0000     0.0000     0.0000 n2         1 14A      -0.785100
      2 C2           1.3030     0.0000     0.0000 c2         1 14A       0.679100
      3 N3           1.9900     0.0000     1.1910 nz         1 14A      -0.738600
      4 N4           1.9910    -0.0000    -1.1900 nu         1 14A      -0.740700
      5 O5           1.2840    -0.0010    -2.4160 os         1 14A      -0.105100
      6 C6           2.2630    -0.0010    -3.4580 c3         1 14A       0.095400
      7 C7           1.5600    -0.0010    -4.8180 c3         1 14A      -0.083400
      8 C8           2.6090    -0.0000    -5.9320 c3         1 14A       0.123400
      9 O9           1.9530    -0.0010    -7.2020 os         1 14A      -0.284900
     10 C10          2.9300    -0.0010    -8.1480 ca         1 14A       0.111100
     11 C11          4.2630    -0.0010    -7.7680 ca         1 14A      -0.212000
     12 C12          5.2610    -0.0020    -8.7250 ca         1 14A       0.055400
     13 C13          4.9340    -0.0030   -10.0670 ca         1 14A      -0.137000
     14 C14          3.5950    -0.0030   -10.4580 ca         1 14A      -0.090600
     15 C15          2.5910    -0.0070    -9.4900 ca         1 14A      -0.099000
     16 Cl16         6.9280    -0.0020    -8.2390 cl         1 14A      -0.096400
     17 C17          3.2420    -0.0040   -11.8930 c          1 14A       0.670700
     18 O18          2.3550    -0.7290   -12.3010 o          1 14A      -0.589100
     19 N19          3.9040     0.7970   -12.7510 n          1 14A      -0.470800
     20 C20          4.9900     1.6510   -12.2650 c3         1 14A       0.116200
     21 C21          6.3120     1.0890   -12.7230 c2         1 14A      -0.214200
     22 C22          7.1070     1.8140   -13.4710 c2         1 14A      -0.191000
     23 C23          3.5350     0.8170   -14.1690 c3         1 14A       0.118700
     24 C24          2.1790     1.5300   -14.3530 c3         1 14A      -0.092400
     25 C25          1.4790     0.7290   -15.4780 c3         1 14A      -0.079400
     26 C26          1.8870    -0.7300   -15.1640 c3         1 14A      -0.079400
     27 C27          3.3490    -0.6200   -14.6840 c3         1 14A      -0.092400
     28 HN1         -0.5020    -0.0000    -0.8660 hn         1 14A       0.495400
     29 HN31         1.3390     0.0000     1.9510 hn         1 14A       0.480467
     30 HN32         2.5650    -0.8170     1.2450 hn         1 14A       0.480467
     31 HN4          2.9920     0.0000    -1.1890 hn         1 14A       0.458800
     32 H61          2.8820     0.8830    -3.3720 h1         1 14A       0.051700
     33 H62          2.8820    -0.8860    -3.3720 h1         1 14A       0.051700
     34 H71          0.9410    -0.8860    -4.9050 hc         1 14A       0.081200
     35 H72          0.9410     0.8830    -4.9040 hc         1 14A       0.081200
     36 H81          3.2270     0.8850    -5.8450 h1         1 14A       0.047700
     37 H82          3.2290    -0.8840    -5.8450 h1         1 14A       0.047700
     38 H11          4.5240    -0.0000    -6.7160 ha         1 14A       0.142000
     39 H13          5.7170    -0.0020   -10.8150 ha         1 14A       0.168000
     40 H15          1.5490    -0.0070    -9.7880 ha         1 14A       0.171000
     41 H201         4.8660     2.6520   -12.6590 h1         1 14A       0.063200
     42 H202         4.9670     1.6830   -11.1820 h1         1 14A       0.063200
     43 H21          6.6040     0.0870   -12.4350 ha         1 14A       0.131000
     44 H221         8.0570     1.4100   -13.8000 ha         1 14A       0.119000
     45 H222         6.8160     2.8160   -13.7590 ha         1 14A       0.119000
     46 H23          4.2990     1.3210   -14.7490 h1         1 14A       0.064700
     47 H241         1.6000     1.4820   -13.4390 hc         1 14A       0.052450
     48 H242         2.3320     2.5580   -14.6600 hc         1 14A       0.052450
     49 H251         1.8510     1.0300   -16.4500 hc         1 14A       0.050450
     50 H252         0.4030     0.8460   -15.4180 hc         1 14A       0.050450
     51 H261         1.2620    -1.1360   -14.3780 hc         1 14A       0.050450
     52 H262         1.8280    -1.3390   -16.0580 hc         1 14A       0.050450
     53 H271         4.0240    -0.8060   -15.5110 hc         1 14A       0.052450
     54 H272         3.5300    -1.3260   -13.8830 hc         1 14A       0.052450
     55 H33          2.5710     0.8130     1.2420 hn         1 14A       0.480467
@<TRIPOS>BOND
     1     1     2 2
     2     1    28 1
     3     2     3 1
     4     2     4 1
     5     3    29 1
     6     3    30 1
     7     4     5 1
     8     4    31 1
     9     5     6 1
    10     6     7 1
    11     6    32 1
    12     6    33 1
    13     7     8 1
    14     7    34 1
    15     7    35 1
    16     8     9 1
    17     8    36 1
    18     8    37 1
    19     9    10 1
    20    10    11 ar
    21    10    15 ar
    22    11    12 ar
    23    11    38 1
    24    12    13 ar
    25    12    16 1
    26    13    14 ar
    27    13    39 1
    28    14    15 ar
    29    14    17 1
    30    15    40 1
    31    17    18 2
    32    17    19 1
    33    19    20 1
    34    19    23 1
    35    20    21 1
    36    20    41 1
    37    20    42 1
    38    21    22 2
    39    21    43 1
    40    22    44 1
    41    22    45 1
    42    23    24 1
    43    23    27 1
    44    23    46 1
    45    24    25 1
    46    24    47 1
    47    24    48 1
    48    25    26 1
    49    25    49 1
    50    25    50 1
    51    26    27 1
    52    26    51 1
    53    26    52 1
    54    27    53 1
    55    27    54 1
    56    55     3 1
@<TRIPOS>SUBSTRUCTURE
     1 14A         1 TEMP              0 ****  ****    0 ROOT
