@<TRIPOS>MOLECULE
14A
   55    56     1     0     0
SMALL
bcc


@<TRIPOS>ATOM
      1 N1           0.0000     0.0000     0.0000 n2         1 14A      -0.559100
      2 C2           1.3030     0.0000     0.0000 c2         1 14A       0.242100
      3 N3           1.9900     0.0000     1.1910 nz         1 14A       0.130400
      4 N4           1.9910    -0.0000    -1.1900 nu         1 14A      -0.229700
      5 O5           1.2840    -0.0010    -2.4160 os         1 14A      -0.169100
      6 C6           2.2630    -0.0010    -3.4580 c3         1 14A       0.184400
      7 C7           1.5600    -0.0010    -4.8180 c3         1 14A      -0.037400
      8 C8           2.6090    -0.0000    -5.9320 c3         1 14A       0.184400
      9 O9           1.9530    -0.0010    -7.2020 os         1 14A      -0.268900
     10 C10          2.9300    -0.0010    -8.1480 ca         1 14A       0.128100
     11 C11          4.2630    -0.0010    -7.7680 ca         1 14A      -0.216000
     12 C12          5.2610    -0.0020    -8.7250 ca         1 14A       0.002400
     13 C13          4.9340    -0.0030   -10.0670 ca         1 14A      -0.140000
     14 C14          3.5950    -0.0030   -10.4580 ca         1 14A      -0.089600
     15 C15          2.5910    -0.0070    -9.4900 ca         1 14A      -0.078000
     16 Cl16         6.9280    -0.0020    -8.2390 cl         1 14A      -0.017400
     17 C17          3.2420    -0.0040   -11.8930 c          1 14A       0.600700
     18 O18          2.3550    -0.7290   -12.3010 o          1 14A      -0.630100
     19 N19          3.9040     0.7970   -12.7510 n          1 14A      -0.126800
     20 C20          4.9900     1.6510   -12.2650 c3         1 14A       0.052200
     21 C21          6.3120     1.0890   -12.7230 c2         1 14A      -0.204200
     22 C22          7.1070     1.8140   -13.4710 c2         1 14A      -0.122000
     23 C23          3.5350     0.8170   -14.1690 c3         1 14A       0.034700
     24 C24          2.1790     1.5300   -14.3530 c3         1 14A      -0.043900
     25 C25          1.4790     0.7290   -15.4780 c3         1 14A      -0.019900
     26 C26          1.8870    -0.7300   -15.1640 c3         1 14A      -0.019900
     27 C27          3.3490    -0.6200   -14.6840 c3         1 14A      -0.043900
     28 HN1         -0.5010     0.0000     0.8660 hn         1 14A       0.344400
     29 HN31         2.8910    -0.4130     1.0570 hn         1 14A       0.226467
     30 HN32         1.4790    -0.5280     1.8710 hn         1 14A       0.226467
     31 HN4          2.9920    -0.0060    -1.1890 hn         1 14A       0.292800
     32 H61          2.8820     0.8830    -3.3720 h1         1 14A       0.005700
     33 H62          2.8820    -0.8860    -3.3720 h1         1 14A       0.005700
     34 H71          0.9410     0.8830    -4.9040 hc         1 14A       0.045200
     35 H72          0.9410    -0.8860    -4.9050 hc         1 14A       0.045200
     36 H81          3.2290    -0.8840    -5.8450 h1         1 14A       0.013700
     37 H82          3.2270     0.8850    -5.8450 h1         1 14A       0.013700
     38 H11          4.5240    -0.0000    -6.7160 ha         1 14A       0.131000
     39 H13          5.7170    -0.0020   -10.8150 ha         1 14A       0.149000
     40 H15          1.5490    -0.0070    -9.7880 ha         1 14A       0.138000
     41 H201         4.8660     2.6520   -12.6590 h1         1 14A       0.041200
     42 H202         4.9670     1.6840   -11.1820 h1         1 14A       0.041200
     43 H21          6.6040     0.0870   -12.4350 ha         1 14A       0.113000
     44 H221         6.8160     2.8160   -13.7590 ha         1 14A       0.088500
     45 H222         8.0570     1.4100   -13.8000 ha         1 14A       0.088500
     46 H23          4.2990     1.3210   -14.7490 h1         1 14A       0.037700
     47 H241         2.3320     2.5580   -14.6600 hc         1 14A       0.025700
     48 H242         1.6000     1.4820   -13.4390 hc         1 14A       0.025700
     49 H251         1.8510     1.0300   -16.4500 hc         1 14A       0.020700
     50 H252         0.4030     0.8460   -15.4180 hc         1 14A       0.020700
     51 H261         1.8280    -1.3390   -16.0580 hc         1 14A       0.020700
     52 H262         1.2620    -1.1360   -14.3780 hc         1 14A       0.020700
     53 H271         4.0240    -0.8060   -15.5110 hc         1 14A       0.025700
     54 H272         3.5300    -1.3260   -13.8830 hc         1 14A       0.025700
     55 H33          2.1050     0.9420     1.5100 hn         1 14A       0.226467
@<TRIPOS>BOND
     1     1     2 2   
     2     1    28 1   
     3     2     3 1   
     4     2     4 1   
     5     3    29 1   
     6     3    30 1   
     7     3    55 1   
     8     4     5 1   
     9     4    31 1   
    10     5     6 1   
    11     6     7 1   
    12     6    32 1   
    13     6    33 1   
    14     7     8 1   
    15     7    34 1   
    16     7    35 1   
    17     8     9 1   
    18     8    36 1   
    19     8    37 1   
    20     9    10 1   
    21    10    11 ar  
    22    10    15 ar  
    23    11    12 ar  
    24    11    38 1   
    25    12    13 ar  
    26    12    16 1   
    27    13    14 ar  
    28    13    39 1   
    29    14    15 ar  
    30    14    17 1   
    31    15    40 1   
    32    17    18 2   
    33    17    19 1   
    34    19    20 1   
    35    19    23 1   
    36    20    21 1   
    37    20    41 1   
    38    20    42 1   
    39    21    22 2   
    40    21    43 1   
    41    22    44 1   
    42    22    45 1   
    43    23    24 1   
    44    23    27 1   
    45    23    46 1   
    46    24    25 1   
    47    24    47 1   
    48    24    48 1   
    49    25    26 1   
    50    25    49 1   
    51    25    50 1   
    52    26    27 1   
    53    26    51 1   
    54    26    52 1   
    55    27    53 1   
    56    27    54 1   
@<TRIPOS>SUBSTRUCTURE
     1 14A         1 TEMP              0 ****  ****    0 ROOT
