@<TRIPOS>MOLECULE
molecule
   22    22     1     0     0
SMALL
bcc


@<TRIPOS>ATOM
      1 CAA          0.0000     0.0000     0.0000 c3         1 14B      -0.033800
      2 CAB          4.3130     0.0050     2.5320 c3         1 14B      -0.026800
      3 NAC          5.6730    -0.0080     0.0370 nv         1 14B      -0.940200
      4 OAD          3.6650     0.1140    -3.6350 o          1 14B      -0.842800
      5 OAE          5.5380    -0.1350    -2.4710 o          1 14B      -0.842800
      6 CAF          2.1950     0.0000     1.2030 ca         1 14B      -0.130000
      7 CAG          2.1920    -0.0020    -1.1950 ca         1 14B      -0.078000
      8 CAH          4.3290    -0.0160    -2.4700 c          1 14B       0.889200
      9 CAI          1.5070     0.0000     0.0000 ca         1 14B      -0.146300
     10 CAJ          3.5750    -0.0010     1.2190 ca         1 14B      -0.161300
     11 CAK          4.2840    -0.0080     0.0240 ca         1 14B       0.198600
     12 CAL          3.5900    -0.0140    -1.1970 ca         1 14B      -0.132600
     13 HAA         -0.3610     0.9910    -0.2470 hc         1 14B       0.025033
     14 HAAA        -0.3610    -0.2820     0.9820 hc         1 14B       0.025033
     15 HAAB        -0.3610    -0.7090    -0.7350 hc         1 14B       0.025033
     16 HAB          4.9530    -0.8670     2.5910 hc         1 14B       0.023700
     17 HABA         3.6000    -0.0150     3.3470 hc         1 14B       0.023700
     18 HABB         4.9170     0.9020     2.6030 hc         1 14B       0.023700
     19 HNAC         6.1750    -0.7870    -0.3420 hn         1 14B       0.422300
     20 HNAA         6.1690     0.7320     0.4910 hn         1 14B       0.422300
     21 HAF          1.6470     0.0020     2.1370 ha         1 14B       0.100000
     22 HAG          1.6490     0.0040    -2.1320 ha         1 14B       0.152000
@<TRIPOS>BOND
     1     1     9 1   
     2     1    13 1   
     3     1    14 1   
     4     1    15 1   
     5    10     2 1   
     6     2    16 1   
     7     2    17 1   
     8     2    18 1   
     9    11     3 1   
    10     3    19 1   
    11     3    20 1   
    12     8     4 1   
    13     5     8 1   
    14     9     6 ar  
    15     6    10 ar  
    16     6    21 1   
    17     7     9 ar  
    18     7    12 ar  
    19     7    22 1   
    20     8    12 1   
    21    11    10 ar  
    22    12    11 ar  
@<TRIPOS>SUBSTRUCTURE
     1 14B         1 TEMP              0 ****  ****    0 ROOT
