@<TRIPOS>MOLECULE
14B
   22    22     1     0     0
SMALL
bcc


@<TRIPOS>ATOM
      1 CAA          0.0560    -0.0660    -0.0230 c3         1 14B      -0.027800
      2 CAB          4.2790     0.0660     2.6150 c3         1 14B      -0.026800
      3 NAC          5.7480     0.3010     0.1510 nv         1 14B      -0.816200
      4 OAD          5.5420    -0.5020    -2.5500 o          1 14B      -0.837800
      5 OAE          3.7840     0.4800    -3.4980 o          1 14B      -0.837800
      6 CAF          2.2100    -0.0000     1.2420 ca         1 14B      -0.114000
      7 CAG          2.2800     0.0310    -1.1620 ca         1 14B      -0.076000
      8 CAH          4.3880     0.0210    -2.4890 c          1 14B       0.914200
      9 CAI          1.5340    -0.0050     0.0230 ca         1 14B      -0.156300
     10 CAJ          3.6030     0.0600     1.2970 ca         1 14B      -0.170300
     11 CAK          4.3590     0.1170     0.0940 ca         1 14B       0.156600
     12 CAL          3.6700     0.0690    -1.1480 ca         1 14B      -0.172600
     13 HAA         -0.2850    -1.1290    -0.1040 hc         1 14B       0.022033
     14 HAAA        -0.3950     0.3740     0.9000 hc         1 14B       0.022033
     15 HAAB        -0.3360     0.4920    -0.9090 hc         1 14B       0.022033
     16 HAB          4.9570    -0.8200     2.7170 hc         1 14B       0.022700
     17 HABA         4.8980     0.9910     2.7360 hc         1 14B       0.022700
     18 HABB         3.5380     0.0310     3.4510 hc         1 14B       0.022700
     19 HNAC         6.1900     0.1850    -0.7470 hn         1 14B       0.390800
     20 HNAA         6.1770    -0.2670     0.8510 hn         1 14B       0.390800
     21 HAF          1.6360    -0.0400     2.1800 ha         1 14B       0.100000
     22 HAG          1.7730     0.0290    -2.1410 ha         1 14B       0.147000
@<TRIPOS>BOND
     1     1     9 1   
     2     1    13 1   
     3     1    14 1   
     4     1    15 1   
     5     2    10 1   
     6     2    16 1   
     7     2    17 1   
     8     2    18 1   
     9     3    11 1   
    10     3    19 1   
    11     3    20 1   
    12     4     8 1   
    13     5     8 1   
    14     6     9 ar  
    15     6    10 ar  
    16     6    21 1   
    17     7     9 ar  
    18     7    12 ar  
    19     7    22 1   
    20     8    12 1   
    21    10    11 ar  
    22    11    12 ar  
@<TRIPOS>SUBSTRUCTURE
     1 14B         1 TEMP              0 ****  ****    0 ROOT
