@<TRIPOS>MOLECULE
14C
   28    30     1     0     0
SMALL
bcc


@<TRIPOS>ATOM
      1 C10          0.0400     0.1860     0.0440 ca         1 14C       0.006700
      2 C13         -0.7600     0.6010    -1.1280 c3         1 14C      -0.077800
      3 C30          6.2680     0.9880    -3.0550 ca         1 14C       0.502300
      4 C28          5.0320     0.9390    -2.3830 ca         1 14C      -0.255300
      5 N32          7.3650     0.2840    -2.6880 nb         1 14C      -0.663000
      6 C34          7.2330    -0.5050    -1.6080 ca         1 14C       0.419200
      7 C36          6.0530    -0.6420    -0.8610 ca         1 14C      -0.265300
      8 C26          4.9150     0.0990    -1.2520 ca         1 14C       0.108600
      9 N19          3.7060     0.0070    -0.5390 n          1 14C      -0.436600
     10 C21          3.5950    -0.3800     0.8370 c          1 14C       0.731100
     11 O23          4.5310    -0.6830     1.5760 o          1 14C      -0.556500
     12 C6           2.1390    -0.3380     1.1790 ca         1 14C      -0.136600
     13 C4           1.5020    -0.6170     2.3660 ca         1 14C      -0.065000
     14 C2           0.0980    -0.4930     2.3960 ca         1 14C      -0.110000
     15 C15          2.4070     0.2870    -1.0810 c          1 14C       0.735100
     16 O17          2.1840     0.6380    -2.2410 o          1 14C      -0.559500
     17 C8           1.4180     0.0640     0.0200 ca         1 14C      -0.146600
     18 C1          -0.6090    -0.1040     1.2700 ca         1 14C      -0.121000
     19 H13         -1.2740     1.5720    -0.9150 hc         1 14C       0.065367
     20 H13A        -0.1170     0.7300    -2.0360 hc         1 14C       0.065367
     21 H13B        -1.5420    -0.1670    -1.3510 hc         1 14C       0.065367
     22 H28          4.1830     1.5360    -2.7500 ha         1 14C       0.181000
     23 H34          8.1400    -1.0700    -1.3230 h4         1 14C       0.032100
     24 H36          6.0380    -1.3070     0.0160 ha         1 14C       0.173000
     25 H4           2.0630    -0.9260     3.2610 ha         1 14C       0.162000
     26 H2          -0.4370    -0.7110     3.3330 ha         1 14C       0.147000
     27 H1          -1.7060    -0.0130     1.3130 ha         1 14C       0.146000
     28 Cl39         6.3830     2.0110    -4.4240 cl         1 14C      -0.148000
@<TRIPOS>BOND
     1     1     2 1   
     2     1    17 ar  
     3     1    18 ar  
     4     2    19 1   
     5     2    20 1   
     6     2    21 1   
     7     3     4 ar  
     8     3     5 ar  
     9     3    28 1   
    10     4     8 ar  
    11     4    22 1   
    12     5     6 ar  
    13     6     7 ar  
    14     6    23 1   
    15     7     8 ar  
    16     7    24 1   
    17     8     9 1   
    18     9    10 1   
    19     9    15 1   
    20    10    11 2   
    21    10    12 1   
    22    12    13 ar  
    23    12    17 ar  
    24    13    14 ar  
    25    13    25 1   
    26    14    18 ar  
    27    14    26 1   
    28    15    16 2   
    29    15    17 1   
    30    18    27 1   
@<TRIPOS>SUBSTRUCTURE
     1 14C         1 TEMP              0 ****  ****    0 ROOT
