@<TRIPOS>MOLECULE
14C
   28    30     1     0     0
SMALL
bcc


@<TRIPOS>ATOM
      1 C10          0.0000     0.0000     0.0000 ca         1 14C       0.004700
      2 C13         -0.7560     0.0000    -1.3030 c3         1 14C       0.051200
      3 C30          7.3290    -0.0010    -0.2990 ca         1 14C       0.419300
      4 C28          6.0700    -0.0010     0.2730 ca         1 14C      -0.232300
      5 N32          7.4750     0.0070    -1.6120 nb         1 14C      -0.584000
      6 C34          6.4380     0.0080    -2.4280 ca         1 14C       0.439200
      7 C36          5.1500     0.0020    -1.9350 ca         1 14C      -0.337300
      8 C26          4.9500     0.0000    -0.5560 ca         1 14C      -0.052400
      9 N19          3.6300     0.0010    -0.4730 n          1 14C       0.066400
     10 C21          3.5220     0.0000     0.8670 c          1 14C       0.601100
     11 O23          4.4470    -0.0000     1.6540 o          1 14C      -0.598500
     12 C6           2.0870     0.0000     1.2230 ca         1 14C      -0.180600
     13 C4           1.3860    -0.0020     2.4190 ca         1 14C      -0.023000
     14 C2          -0.0000     0.0060     2.4030 ca         1 14C      -0.077000
     15 C15          2.4180     0.0010    -1.0580 c          1 14C       0.691100
     16 O17          2.2080    -0.0010    -2.2540 o          1 14C      -0.597500
     17 C8           1.3850     0.0000     0.0000 ca         1 14C      -0.176600
     18 C1          -0.6870     0.0060     1.2040 ca         1 14C      -0.090000
     19 H13         -0.4990     0.8870    -1.8700 hc         1 14C       0.020033
     20 H13A        -0.4920    -0.8820    -1.8740 hc         1 14C       0.020033
     21 H13B        -1.8210    -0.0050    -1.1030 hc         1 14C       0.020033
     22 H28          5.9560    -0.0020     1.3500 ha         1 14C       0.214000
     23 H34          6.6010     0.0110    -3.4990 h4         1 14C      -0.018900
     24 H36          4.3040     0.0030    -2.6120 ha         1 14C       0.157000
     25 H4           1.9190    -0.0020     3.3620 ha         1 14C       0.119000
     26 H2          -0.5480     0.0110     3.3380 ha         1 14C       0.111000
     27 H1          -1.7710     0.0120     1.2050 ha         1 14C       0.116000
     28 Cl39         8.7340    -0.0020     0.7210 cl         1 14C      -0.083000
@<TRIPOS>BOND
     1     1     2 1   
     2     1    17 ar  
     3     1    18 ar  
     4     2    19 1   
     5     2    20 1   
     6     2    21 1   
     7     3     4 ar  
     8     3     5 ar  
     9     3    28 1   
    10     4     8 ar  
    11     4    22 1   
    12     5     6 ar  
    13     6     7 ar  
    14     6    23 1   
    15     7     8 ar  
    16     7    24 1   
    17     8     9 1   
    18     9    10 1   
    19     9    15 1   
    20    10    11 2   
    21    10    12 1   
    22    12    13 ar  
    23    12    17 ar  
    24    13    14 ar  
    25    13    25 1   
    26    14    18 ar  
    27    14    26 1   
    28    15    16 2   
    29    15    17 1   
    30    18    27 1   
@<TRIPOS>SUBSTRUCTURE
     1 14C         1 TEMP              0 ****  ****    0 ROOT
