@<TRIPOS>MOLECULE
molecule
   28    30     1     0     0
SMALL
bcc


@<TRIPOS>ATOM
      1 C10          0.0000     0.0000     0.0000 ca         1 14C      -0.001300
      2 C13         -0.7560     0.0000    -1.3030 c3         1 14C      -0.056800
      3 C30          7.3290    -0.0010    -0.2990 ca         1 14C       0.528300
      4 C28          6.0700    -0.0010     0.2730 ca         1 14C      -0.237300
      5 N32          7.4750     0.0070    -1.6120 nb         1 14C      -0.702000
      6 C34          6.4380     0.0080    -2.4280 ca         1 14C       0.446200
      7 C36          5.1500     0.0020    -1.9350 ca         1 14C      -0.317300
      8 C26          4.9500     0.0000    -0.5560 ca         1 14C       0.080600
      9 N19          3.6300     0.0010    -0.4730 n          1 14C      -0.362600
     10 C21          3.5220     0.0000     0.8670 c          1 14C       0.677100
     11 O23          4.4470    -0.0000     1.6540 o          1 14C      -0.564500
     12 C6           2.0870     0.0000     1.2230 ca         1 14C      -0.159600
     13 C4           1.3860    -0.0020     2.4190 ca         1 14C      -0.065000
     14 C2          -0.0000     0.0060     2.4030 ca         1 14C      -0.103000
     15 C15          2.4180     0.0010    -1.0580 c          1 14C       0.772100
     16 O17          2.2080    -0.0010    -2.2540 o          1 14C      -0.554500
     17 C8           1.3850     0.0000     0.0000 ca         1 14C      -0.157600
     18 C1          -0.6870     0.0060     1.2040 ca         1 14C      -0.114000
     19 H13         -0.4990     0.8870    -1.8700 hc         1 14C       0.057700
     20 H13A        -0.4920    -0.8820    -1.8740 hc         1 14C       0.057700
     21 H13B        -1.8210    -0.0050    -1.1030 hc         1 14C       0.057700
     22 H28          5.9560    -0.0020     1.3500 ha         1 14C       0.223000
     23 H34          6.6010     0.0110    -3.4990 h4         1 14C       0.029100
     24 H36          4.3040     0.0030    -2.6120 ha         1 14C       0.171000
     25 H4           1.9190    -0.0020     3.3620 ha         1 14C       0.153000
     26 H2          -0.5480     0.0110     3.3380 ha         1 14C       0.145000
     27 H1          -1.7710     0.0120     1.2050 ha         1 14C       0.147000
     28 Cl39         8.7340    -0.0020     0.7210 cl         1 14C      -0.150000
@<TRIPOS>BOND
     1     1     2 1
     2     1    17 ar
     3     1    18 ar
     4    28     3 1
     5     3     4 ar
     6     3     5 ar
     7     4     8 ar
     8     5     6 ar
     9     6     7 ar
    10     7     8 ar
    11     8     9 1
    12     9    10 1
    13     9    15 1
    14    10    11 2
    15    10    12 1
    16    12    13 ar
    17    12    17 ar
    18    13    14 ar
    19    14    18 ar
    20    15    16 2
    21    15    17 1
    22     2    19 1
    23     2    20 1
    24     2    21 1
    25     4    22 1
    26     6    23 1
    27     7    24 1
    28    13    25 1
    29    14    26 1
    30    18    27 1
@<TRIPOS>SUBSTRUCTURE
     1 14C         1 TEMP              0 ****  ****    0 ROOT
