@<TRIPOS>MOLECULE
14D
   57    60     1     0     0
SMALL
bcc


@<TRIPOS>ATOM
      1 C1           0.0000     0.0000     0.0000 c3         1 14D       0.102100
      2 C2           1.5080     0.0000     0.0000 cc         1 14D      -0.279400
      3 C3           2.1910     0.0000     1.1640 cd         1 14D      -0.099400
      4 N1           3.5600     0.0010     1.1460 n          1 14D       0.058000
      5 C4           4.2290    -0.0000    -0.0210 c          1 14D       0.587500
      6 O1           5.4450     0.0010    -0.0140 o          1 14D      -0.714500
      7 N2           3.5720    -0.0000    -1.1960 ns         1 14D      -0.126500
      8 C5           2.2240    -0.0050    -1.2200 c          1 14D       0.618700
      9 O2           1.6300    -0.0060    -2.2830 o          1 14D      -0.657500
     10 C6           4.3020     0.0000     2.4090 c3         1 14D       0.021700
     11 C7           5.1870    -1.2480     2.4820 c3         1 14D      -0.066400
     12 C8           6.0040    -1.2100     3.7770 c3         1 14D      -0.011400
     13 C9           6.8350     0.0750     3.8120 c3         1 14D       0.130800
     14 N3           5.9430     1.2390     3.7400 n3         1 14D      -0.529600
     15 C10          5.1830     1.2490     2.4830 c3         1 14D       0.116800
     16 C11          6.6950     2.4900     3.9100 c3         1 14D       0.211100
     17 C12          7.2550     2.5520     5.3070 ca         1 14D      -0.053300
     18 C13          8.5090     2.0330     5.5740 ca         1 14D      -0.139000
     19 C14          9.0260     2.0900     6.8550 ca         1 14D      -0.055000
     20 C15          8.2910     2.6660     7.8730 ca         1 14D      -0.199000
     21 C16          7.0330     3.1880     7.6080 ca         1 14D       0.139100
     22 C17          6.5190     3.1350     6.3210 ca         1 14D      -0.116000
     23 O3           6.3080     3.7560     8.6080 os         1 14D      -0.220200
     24 C18          6.8580     3.8000     9.8490 ca         1 14D       0.102100
     25 C19          7.6270     4.8910    10.2300 ca         1 14D      -0.085000
     26 C20          8.1850     4.9340    11.4920 ca         1 14D      -0.093000
     27 C21          7.9810     3.8910    12.3770 ca         1 14D      -0.052000
     28 C22          7.2170     2.8020    12.0000 ca         1 14D      -0.199300
     29 C23          6.6500     2.7570    10.7400 ca         1 14D      -0.058000
     30 C24          6.9960     1.6670    12.9650 c3         1 14D       0.641200
     31 F1           7.4990     0.4830    12.4150 f          1 14D      -0.206967
     32 F2           7.6580     1.9410    14.1660 f          1 14D      -0.206967
     33 F3           5.6260     1.5220    13.2110 f          1 14D      -0.206967
     34 H1          -0.3610    -0.8820    -0.5150 hc         1 14D       0.010700
     35 H2          -0.3610    -0.0050     1.0210 hc         1 14D       0.010700
     36 H3          -0.3610     0.8870    -0.5060 hc         1 14D       0.010700
     37 H4           1.6590     0.0010     2.1080 h4         1 14D       0.139000
     38 H5           4.0870    -0.0020    -2.0540 hn         1 14D       0.206500
     39 H6           3.6090    -0.0010     3.2410 h1         1 14D       0.050700
     40 H7           4.5630    -2.1330     2.4760 hc         1 14D       0.040700
     41 H8           5.8580    -1.2650     1.6320 hc         1 14D       0.040700
     42 H9           6.6650    -2.0670     3.8110 hc         1 14D       0.020700
     43 H10          5.3330    -1.2280     4.6270 hc         1 14D       0.020700
     44 H11          7.4010     0.1120     4.7350 h1         1 14D       0.022700
     45 H12          7.5130     0.0890     2.9670 h1         1 14D       0.022700
     46 H14          4.5570     2.1330     2.4490 h1         1 14D       0.035200
     47 H15          5.8710     1.2550     1.6470 h1         1 14D       0.035200
     48 H16          7.5070     2.5230     3.1930 h1         1 14D       0.015700
     49 H17          6.0350     3.3330     3.7470 h1         1 14D       0.015700
     50 H18          9.0870     1.5810     4.7770 ha         1 14D       0.112000
     51 H19         10.0080     1.6820     7.0600 ha         1 14D       0.104000
     52 H20          8.6960     2.7080     8.8770 ha         1 14D       0.123000
     53 H21          5.5370     3.5420     6.1130 ha         1 14D       0.122000
     54 H22          7.7880     5.7090     9.5380 ha         1 14D       0.120000
     55 H23          8.7850     5.7860    11.7900 ha         1 14D       0.114000
     56 H24          8.4220     3.9260    13.3650 ha         1 14D       0.124000
     57 H25          6.0510     1.9040    10.4450 ha         1 14D       0.129000
@<TRIPOS>BOND
     1     1     2 1   
     2     1    34 1   
     3     1    35 1   
     4     1    36 1   
     5     2     3 2   
     6     2     8 1   
     7     3     4 1   
     8     3    37 1   
     9     4     5 1   
    10     4    10 1   
    11     5     6 2   
    12     5     7 1   
    13     7     8 1   
    14     7    38 1   
    15     8     9 2   
    16    10    11 1   
    17    10    15 1   
    18    10    39 1   
    19    11    12 1   
    20    11    40 1   
    21    11    41 1   
    22    12    13 1   
    23    12    42 1   
    24    12    43 1   
    25    13    14 1   
    26    13    44 1   
    27    13    45 1   
    28    14    15 1   
    29    14    16 1   
    30    15    46 1   
    31    15    47 1   
    32    16    17 1   
    33    16    48 1   
    34    16    49 1   
    35    17    18 ar  
    36    17    22 ar  
    37    18    19 ar  
    38    18    50 1   
    39    19    20 ar  
    40    19    51 1   
    41    20    21 ar  
    42    20    52 1   
    43    21    22 ar  
    44    21    23 1   
    45    22    53 1   
    46    23    24 1   
    47    24    25 ar  
    48    24    29 ar  
    49    25    26 ar  
    50    25    54 1   
    51    26    27 ar  
    52    26    55 1   
    53    27    28 ar  
    54    27    56 1   
    55    28    29 ar  
    56    28    30 1   
    57    29    57 1   
    58    30    31 1   
    59    30    32 1   
    60    30    33 1   
@<TRIPOS>SUBSTRUCTURE
     1 14D         1 TEMP              0 ****  ****    0 ROOT
