@<TRIPOS>MOLECULE
14D
   57    60     1     0     0
SMALL
bcc


@<TRIPOS>ATOM
      1 C1          -0.1470    -0.2310     0.3160 c3         1 14D      -0.032900
      2 C2           1.3040     0.0200     0.2270 cc         1 14D      -0.267400
      3 C3           2.1360    -0.0440     1.3040 cd         1 14D       0.039600
      4 N1           3.4940     0.2100     1.2220 n          1 14D      -0.370000
      5 C4           4.0700     0.5660    -0.0290 c          1 14D       0.807500
      6 O1           5.2890     0.8160    -0.1400 o          1 14D      -0.634500
      7 N2           3.2280     0.6360    -1.1490 ns         1 14D      -0.584500
      8 C5           1.8490     0.3700    -1.0970 c          1 14D       0.716700
      9 O2           1.1880     0.4400    -2.1470 o          1 14D      -0.607500
     10 C6           4.3530     0.0810     2.3930 c3         1 14D       0.099700
     11 C7           3.9490     1.0210     3.5380 c3         1 14D      -0.091400
     12 C8           4.9150     0.8460     4.6880 c3         1 14D      -0.078400
     13 C9           4.9760    -0.6090     5.1470 c3         1 14D       0.162800
     14 N3           5.2660    -1.5340     4.0610 n3         1 14D      -0.722600
     15 C10          4.3820    -1.3830     2.9170 c3         1 14D       0.156800
     16 C11          5.3960    -2.9130     4.4980 c3         1 14D       0.213100
     17 C12          4.1630    -3.5860     5.0370 ca         1 14D      -0.102300
     18 C13          3.8370    -3.4770     6.3930 ca         1 14D      -0.135000
     19 C14          2.7110    -4.1230     6.9030 ca         1 14D      -0.110000
     20 C15          1.8920    -4.8820     6.0710 ca         1 14D      -0.132000
     21 C16          2.2280    -4.9890     4.7130 ca         1 14D       0.097100
     22 C17          3.3540    -4.3460     4.1880 ca         1 14D      -0.161000
     23 O3           1.4360    -5.8570     3.9640 os         1 14D      -0.243200
     24 C18          1.1630    -5.4860     2.6530 ca         1 14D       0.106100
     25 C19          1.0070    -4.1570     2.2410 ca         1 14D      -0.154000
     26 C20          0.6320    -3.8930     0.9250 ca         1 14D      -0.112000
     27 C21          0.4140    -4.9380     0.0280 ca         1 14D      -0.102000
     28 C22          0.5740    -6.2590     0.4550 ca         1 14D      -0.143300
     29 C23          0.9530    -6.5520     1.7630 ca         1 14D      -0.097000
     30 C24          0.3170    -7.4010    -0.5230 c3         1 14D       0.687200
     31 F1           0.6110    -7.1060    -1.8320 f          1 14D      -0.234300
     32 F2          -0.9910    -7.8210    -0.5600 f          1 14D      -0.234300
     33 F3           1.0310    -8.5460    -0.2670 f          1 14D      -0.234300
     34 H1          -0.4710    -0.9040    -0.5190 hc         1 14D       0.051367
     35 H2          -0.4190    -0.7030     1.2910 hc         1 14D       0.051367
     36 H3          -0.7100     0.7320     0.2140 hc         1 14D       0.051367
     37 H4           1.7600    -0.3040     2.3130 h4         1 14D       0.163000
     38 H5           3.6520     0.8860    -2.0170 hn         1 14D       0.354500
     39 H6           5.4040     0.3570     2.0660 h1         1 14D       0.119700
     40 H7           3.9660     2.0850     3.1870 hc         1 14D       0.050200
     41 H8           2.9060     0.7920     3.8820 hc         1 14D       0.050200
     42 H9           4.5890     1.4770     5.5550 hc         1 14D       0.057200
     43 H10          5.9370     1.1900     4.3800 hc         1 14D       0.057200
     44 H11          4.0030    -0.8680     5.6620 h1         1 14D       0.037700
     45 H12          5.8010    -0.7150     5.9070 h1         1 14D       0.037700
     46 H14          4.7710    -2.0540     2.0990 h1         1 14D       0.039200
     47 H15          3.3270    -1.7120     3.1590 h1         1 14D       0.039200
     48 H16          6.1940    -2.9330     5.2950 h1         1 14D       0.066700
     49 H17          5.7780    -3.5060     3.6160 h1         1 14D       0.066700
     50 H18          4.4770    -2.8800     7.0600 ha         1 14D       0.137000
     51 H19          2.4660    -4.0350     7.9730 ha         1 14D       0.141000
     52 H20          1.0060    -5.4040     6.4590 ha         1 14D       0.155000
     53 H21          3.5990    -4.4450     3.1190 ha         1 14D       0.149000
     54 H22          1.1820    -3.3370     2.9530 ha         1 14D       0.148000
     55 H23          0.5030    -2.8490     0.5920 ha         1 14D       0.149000
     56 H24          0.1220    -4.7280    -1.0130 ha         1 14D       0.158000
     57 H25          1.0820    -7.5910     2.1030 ha         1 14D       0.171000
@<TRIPOS>BOND
     1     1     2 1   
     2     1    34 1   
     3     1    35 1   
     4     1    36 1   
     5     2     3 2   
     6     2     8 1   
     7     3     4 1   
     8     3    37 1   
     9     4     5 1   
    10     4    10 1   
    11     5     6 2   
    12     5     7 1   
    13     7     8 1   
    14     7    38 1   
    15     8     9 2   
    16    10    11 1   
    17    10    15 1   
    18    10    39 1   
    19    11    12 1   
    20    11    40 1   
    21    11    41 1   
    22    12    13 1   
    23    12    42 1   
    24    12    43 1   
    25    13    14 1   
    26    13    44 1   
    27    13    45 1   
    28    14    15 1   
    29    14    16 1   
    30    15    46 1   
    31    15    47 1   
    32    16    17 1   
    33    16    48 1   
    34    16    49 1   
    35    17    18 ar  
    36    17    22 ar  
    37    18    19 ar  
    38    18    50 1   
    39    19    20 ar  
    40    19    51 1   
    41    20    21 ar  
    42    20    52 1   
    43    21    22 ar  
    44    21    23 1   
    45    22    53 1   
    46    23    24 1   
    47    24    25 ar  
    48    24    29 ar  
    49    25    26 ar  
    50    25    54 1   
    51    26    27 ar  
    52    26    55 1   
    53    27    28 ar  
    54    27    56 1   
    55    28    29 ar  
    56    28    30 1   
    57    29    57 1   
    58    30    31 1   
    59    30    32 1   
    60    30    33 1   
@<TRIPOS>SUBSTRUCTURE
     1 14D         1 TEMP              0 ****  ****    0 ROOT
