@<TRIPOS>MOLECULE
14E
   42    45     1     0     0
SMALL
bcc


@<TRIPOS>ATOM
      1 O4          0.3710   -5.0180    2.6640 o         1 14E     -0.822300
      2 N1          1.8770   -2.2230   -0.3060 n2        1 14E     -0.410200
      3 O1          1.9010   -1.0680    0.3440 os        1 14E     -0.102600
      4 C25         0.1620   -5.4360    1.4920 c         1 14E      0.912200
      5 C17         2.7240   -0.2740    3.9630 c3        1 14E     -0.023200
      6 C16         2.3600   -0.2060    2.5270 c2        1 14E     -0.164200
      7 C14         2.2750   -2.7590    1.9520 c3        1 14E     -0.124500
      8 C13         2.0910   -3.2400    0.5140 ce        1 14E      0.381900
      9 C12         2.2210   -4.6410    0.1200 ca        1 14E     -0.099900
     10 C11         3.2800   -4.9610   -0.7490 ca        1 14E     -0.122000
     11 C10         3.4980   -6.2740   -1.1500 ca        1 14E     -0.174000
     12 C7          2.6470   -7.2850   -0.6980 ca        1 14E     -0.149000
     13 C8          1.5890   -6.9690    0.1460 ca        1 14E     -0.124000
     14 C9          1.3610   -5.6510    0.5720 ca        1 14E     -0.072600
     15 C15         2.1950   -1.2750    1.7450 c2        1 14E     -0.021100
     16 C18         2.1090    0.8240    4.7880 c3        1 14E     -0.345600
     17 P1          3.2690    1.8910    5.4310 p5        1 14E      1.269800
     18 O2          2.7040    2.4970    6.6690 o         1 14E     -0.884000
     19 O3          4.6250    1.2840    5.4760 o         1 14E     -0.884000
     20 C19         3.2650    3.0900    4.2340 cv        1 14E     -0.203800
     21 C20         2.4040    4.3310    3.8940 cy        1 14E     -0.000200
     22 C21         3.3580    4.6390    2.7020 cy        1 14E     -0.117300
     23 C22         4.7460    5.2750    2.7510 cv        1 14E     -0.140500
     24 BR1         5.2680    6.9950    2.4430 br        1 14E     -0.089700
     25 C23         5.4100    4.1020    3.0370 ce        1 14E     -0.009000
     26 C24         4.1520    3.3870    3.2540 ce        1 14E     -0.083200
     27 H1          3.8510   -0.2070    4.0500 hc        1 14E      0.063200
     28 H2          2.4290   -1.2820    4.3670 hc        1 14E      0.063200
     29 H3          2.2460    0.8020    2.0970 ha        1 14E      0.129000
     30 H4          1.4520   -3.1630    2.6060 hc        1 14E      0.114200
     31 H5          3.2590   -3.0770    2.3700 hc        1 14E      0.114200
     32 H6          3.9410   -4.1610   -1.1120 ha        1 14E      0.120000
     33 H7          4.3330   -6.5130   -1.8210 ha        1 14E      0.101000
     34 H8          2.8120   -8.3230   -1.0150 ha        1 14E      0.099000
     35 H9          0.8940   -7.7510    0.4880 ha        1 14E      0.135000
     36 H10         1.5500    0.3700    5.6450 hc        1 14E      0.064700
     37 H11         1.3410    1.3770    4.1970 hc        1 14E      0.064700
     38 H13         1.3670    4.1270    3.5580 hc        1 14E      0.060200
     39 H14         2.4130    5.0810    4.7140 hc        1 14E      0.060200
     40 H15         2.8820    4.6680    1.7120 hc        1 14E      0.076700
     41 H16         6.4410    3.8020    3.1670 ha        1 14E      0.164000
     42 OXT        -0.9730   -5.7500    1.0380 o         1 14E     -0.822300
@<TRIPOS>BOND
     1    1    4 1
     2    2    3 1
     3    2    8 2
     4    3   15 1
     5    4   14 1
     6    4   42 1
     7    5    6 1
     8    5   16 1
     9    5   27 1
    10    5   28 1
    11    6   15 2
    12    6   29 1
    13    7    8 1
    14    7   15 1
    15    7   30 1
    16    7   31 1
    17    8    9 1
    18    9   10 ar
    19    9   14 ar
    20   10   11 ar
    21   10   32 1
    22   11   12 ar
    23   11   33 1
    24   12   13 ar
    25   12   34 1
    26   13   14 ar
    27   13   35 1
    28   16   17 1
    29   16   36 1
    30   16   37 1
    31   17   18 1
    32   17   19 1
    33   17   20 1
    34   20   21 1
    35   20   26 2
    36   21   22 1
    37   21   38 1
    38   21   39 1
    39   22   23 1
    40   22   26 1
    41   22   40 1
    42   23   24 1
    43   23   25 2
    44   25   26 1
    45   25   41 1
@<TRIPOS>SUBSTRUCTURE
     1 14E         1 TEMP              0 ****  ****    0 ROOT
