@<TRIPOS>MOLECULE
molecule
   24    24     1     0     0
SMALL
bcc


@<TRIPOS>ATOM
      1 CAA          0.0000     0.0000     0.0000 c3         1 14F       0.133700
      2 CAB          5.5970     0.0220     0.2770 c3         1 14F       0.130700
      3 OAD          5.3280     0.1180     5.0600 o          1 14F      -0.840300
      4 OAE          3.3330    -0.1260     6.0080 o          1 14F      -0.840300
      5 CAF          1.2880     0.0030     2.3700 ca         1 14F      -0.246000
      6 CAG          4.0730     0.0040     2.5030 ca         1 14F      -0.141000
      7 OAH          1.4290     0.0000     0.0000 os         1 14F      -0.329900
      8 CAK          1.9130     0.0000     3.6080 ca         1 14F       0.193600
      9 CAL          2.0450     0.0020     1.2100 ca         1 14F       0.093100
     10 CAM          3.4390     0.0020     1.2790 ca         1 14F       0.063100
     11 CAN          3.3170    -0.0050     3.6810 ca         1 14F      -0.126600
     12 HAA         -0.3610    -0.8830     0.5120 h1         1 14F       0.027367
     13 HAAA        -0.3610    -0.0020    -1.0210 h1         1 14F       0.027367
     14 HAAB        -0.3610     0.8860     0.5090 h1         1 14F       0.027367
     15 HAB          5.8970     0.9010     0.8350 h1         1 14F       0.033033
     16 HABA         5.9140    -0.8680     0.8080 h1         1 14F       0.033033
     17 HABB         6.0590     0.0420    -0.7030 h1         1 14F       0.033033
     18 HNAC         0.6220    -0.8070     5.0240 hn         1 14F       0.421300
     19 HNAA         1.1360     0.8150     5.3560 hn         1 14F       0.421300
     20 HAF          0.2070     0.0080     2.3100 ha         1 14F       0.120000
     21 HAG          5.1540    -0.0500     2.5540 ha         1 14F       0.164000
     22 OAI          4.1760     0.0110     0.1340 os         1 14F      -0.339900
     23 CAJ          3.9880    -0.0090     4.9900 c          1 14F       0.888200
     24 NAC          1.1540     0.0030     4.7720 nv         1 14F      -0.947200
@<TRIPOS>BOND
     1     1     7 1
     2     1    12 1
     3     1    13 1
     4     1    14 1
     5    22     2 1
     6     2    15 1
     7     2    16 1
     8     2    17 1
     9    24     8 1
    10    24    18 1
    11    24    19 1
    12    23     3 1
    13     4    23 1
    14     8     5 ar
    15     5     9 ar
    16     5    20 1
    17    11     6 ar
    18     6    10 ar
    19     6    21 1
    20     9     7 1
    21    10    22 1
    22    23    11 1
    23     8    11 ar
    24     9    10 ar
@<TRIPOS>SUBSTRUCTURE
     1 14F         1 TEMP              0 ****  ****    0 ROOT
