@<TRIPOS>MOLECULE
14F
   24    24     1     0     0
SMALL
bcc


@<TRIPOS>ATOM
      1 CAA          0.2810    -0.0060     0.0110 c3         1 14F       0.120700
      2 CAB          5.5310    -0.8410    -0.3330 c3         1 14F       0.117700
      3 OAD          5.7530    -1.4630     4.5640 o          1 14F      -0.834300
      4 OAE          4.5430    -0.0210     5.7530 o          1 14F      -0.834300
      5 CAF          1.7770     0.2100     2.4230 ca         1 14F      -0.240000
      6 CAG          4.3910    -0.7520     2.2360 ca         1 14F      -0.120000
      7 OAH          1.6770     0.2590    -0.0170 os         1 14F      -0.327900
      8 CAK          2.5140    -0.0330     3.6040 ca         1 14F       0.149600
      9 CAL          2.3420    -0.0310     1.1690 ca         1 14F       0.089100
     10 CAM          3.6500    -0.5390     1.0690 ca         1 14F       0.033100
     11 CAN          3.8550    -0.4890     3.4940 ca         1 14F      -0.164600
     12 HAA          0.0560    -0.9770     0.5120 h1         1 14F       0.027700
     13 HAAA        -0.2550     0.8260     0.5310 h1         1 14F       0.027700
     14 HAAB        -0.0120    -0.0390    -1.0690 h1         1 14F       0.027700
     15 HAB          5.7050    -0.8510    -1.4380 h1         1 14F       0.031700
     16 HABA         5.9490    -1.7670     0.1350 h1         1 14F       0.031700
     17 HABB         5.9920     0.0640     0.1320 h1         1 14F       0.031700
     18 HNAC         2.5170     0.0200     5.6190 hn         1 14F       0.389800
     19 HNAA         1.3460     0.9500     4.9030 hn         1 14F       0.389800
     20 HAF          0.7470     0.5890     2.4830 ha         1 14F       0.119000
     21 HAG          5.4220    -1.1410     2.1920 ha         1 14F       0.161000
     22 OAI          4.1150    -0.8230    -0.2090 os         1 14F      -0.328900
     23 CAJ          4.7730    -0.6780     4.6940 c          1 14F       0.915200
     24 NAC          1.8750     0.1050     4.8470 nv         1 14F      -0.814200
@<TRIPOS>BOND
     1     1     7 1   
     2     1    12 1   
     3     1    13 1   
     4     1    14 1   
     5     2    15 1   
     6     2    16 1   
     7     2    17 1   
     8     2    22 1   
     9     3    23 1   
    10     4    23 1   
    11     5     8 ar  
    12     5     9 ar  
    13     5    20 1   
    14     6    10 ar  
    15     6    11 ar  
    16     6    21 1   
    17     7     9 1   
    18     8    11 ar  
    19     8    24 1   
    20     9    10 ar  
    21    10    22 1   
    22    11    23 1   
    23    18    24 1   
    24    19    24 1   
@<TRIPOS>SUBSTRUCTURE
     1 14F         1 TEMP              0 ****  ****    0 ROOT
