@<TRIPOS>MOLECULE
molecule
   69    69     1     0     0
SMALL
bcc


@<TRIPOS>ATOM
      1 O21          0.0000     0.0000     0.0000 o          1 14H      -0.614100
      2 C21          1.2120     0.0000     0.0000 c          1 14H       0.656100
      3 N2           1.8870     0.0000     1.1670 ns         1 14H      -0.580900
      4 C2           1.1540    -0.0020     2.4360 c3         1 14H       0.120700
      5 C1           0.7910    -1.4390     2.8140 c3         1 14H       0.120400
      6 O1           1.9850    -2.1810     3.0650 oh         1 14H      -0.619800
      7 C3           2.0310     0.6080     3.5320 c3         1 14H      -0.079400
      8 C4           2.2910     2.0820     3.2170 c3         1 14H       0.192400
      9 C5           3.2530     2.6500     4.2270 ca         1 14H      -0.129300
     10 C6           4.5900     2.7880     3.9070 ca         1 14H      -0.112500
     11 C7           5.4730     3.3090     4.8350 ca         1 14H      -0.130500
     12 C8           5.0170     3.6930     6.0820 ca         1 14H      -0.124000
     13 C9           3.6800     3.5550     6.4030 ca         1 14H      -0.130500
     14 C10          2.7970     3.0390     5.4730 ca         1 14H      -0.112500
     15 O4           1.0590     2.8060     3.2710 oh         1 14H      -0.603800
     16 C22          1.9650    -0.0050    -1.3050 c3         1 14H      -0.158400
     17 C23          0.9710    -0.0100    -2.4680 c3         1 14H      -0.066400
     18 C24          1.7370    -0.0140    -3.7930 c3         1 14H      -0.085400
     19 C25          0.7420    -0.0200    -4.9560 c3         1 14H      -0.080400
     20 C26          1.5080    -0.0240    -6.2810 c3         1 14H      -0.082400
     21 C27          0.5140    -0.0300    -7.4440 c3         1 14H      -0.081400
     22 C28          1.2790    -0.0350    -8.7690 c3         1 14H      -0.082400
     23 C29          0.2850    -0.0400    -9.9320 c3         1 14H      -0.082400
     24 C30          1.0490    -0.0440   -11.2570 c3         1 14H      -0.081400
     25 C31          0.0550    -0.0500   -12.4200 c3         1 14H      -0.082400
     26 C32          0.8200    -0.0550   -13.7450 c3         1 14H      -0.081400
     27 C33         -0.1740    -0.0600   -14.9080 c3         1 14H      -0.084400
     28 C34          0.5910    -0.0650   -16.2330 c3         1 14H      -0.092100
     29 HN2          2.8870    -0.0280     1.1670 hn         1 14H       0.316500
     30 H2           0.2490     0.5840     2.3310 h1         1 14H       0.102700
     31 H1           0.1750    -1.4340     3.7040 h1         1 14H       0.035700
     32 H1A          0.2450    -1.9000     1.9990 h1         1 14H       0.035700
     33 HO1          1.7610    -3.0450     3.3670 ho         1 14H       0.403000
     34 H3           1.5250     0.5260     4.4860 hc         1 14H       0.070200
     35 H3A          2.9740     0.0760     3.5770 hc         1 14H       0.070200
     36 H4           2.7170     2.1690     2.2240 h1         1 14H       0.037700
     37 H6           4.9470     2.4870     2.9290 ha         1 14H       0.135000
     38 H7           6.5210     3.4180     4.5840 ha         1 14H       0.130500
     39 H8           5.7090     4.1000     6.8090 ha         1 14H       0.129000
     40 H9           3.3230     3.8580     7.3790 ha         1 14H       0.130500
     41 H10          1.7490     2.9310     5.7240 ha         1 14H       0.135000
     42 HO4          1.1560     3.6250     2.8140 ho         1 14H       0.408000
     43 H22          2.5880     0.8800    -1.3660 hc         1 14H       0.058200
     44 H22A         2.5890    -0.8890    -1.3590 hc         1 14H       0.058200
     45 H23          0.3490    -0.8950    -2.4080 hc         1 14H       0.058700
     46 H23A         0.3480     0.8740    -2.4140 hc         1 14H       0.058700
     47 H24          2.3610    -0.8980    -3.8460 hc         1 14H       0.038200
     48 H24A         2.3590     0.8710    -3.8530 hc         1 14H       0.038200
     49 H25          0.1180     0.8640    -4.9020 hc         1 14H       0.043700
     50 H25A         0.1210    -0.9050    -4.8950 hc         1 14H       0.043700
     51 H26          2.1320    -0.9080    -6.3340 hc         1 14H       0.040200
     52 H26A         2.1300     0.8610    -6.3410 hc         1 14H       0.040200
     53 H27         -0.1090    -0.9140    -7.3830 hc         1 14H       0.041700
     54 H27A        -0.1100     0.8550    -7.3910 hc         1 14H       0.041700
     55 H28          1.9010     0.8500    -8.8290 hc         1 14H       0.040700
     56 H28A         1.9020    -0.9190    -8.8220 hc         1 14H       0.040700
     57 H29         -0.3390     0.8440    -9.8780 hc         1 14H       0.041700
     58 H29A        -0.3370    -0.9250    -9.8710 hc         1 14H       0.041700
     59 H30          1.6730    -0.9290   -11.3110 hc         1 14H       0.040700
     60 H30A         1.6710     0.8400   -11.3170 hc         1 14H       0.040700
     61 H31         -0.5680    -0.9340   -12.3590 hc         1 14H       0.040700
     62 H31A        -0.5690     0.8350   -12.3660 hc         1 14H       0.040700
     63 H32          1.4420     0.8300   -13.8050 hc         1 14H       0.040700
     64 H32A         1.4430    -0.9390   -13.7980 hc         1 14H       0.040700
     65 H33         -0.7970    -0.9450   -14.8470 hc         1 14H       0.039700
     66 H33A        -0.7980     0.8240   -14.8540 hc         1 14H       0.039700
     67 H34          1.2040     0.8250   -16.2990 hc         1 14H       0.032367
     68 H34A        -0.1130    -0.0810   -17.0560 hc         1 14H       0.032367
     69 H34B         1.2230    -0.9430   -16.2810 hc         1 14H       0.032367
@<TRIPOS>BOND
     1     1     2 2   
     2     2     3 1   
     3     2    16 1   
     4     3     4 1   
     5     4     5 1   
     6     4     7 1   
     7     5     6 1   
     8     7     8 1   
     9     8     9 1   
    10     8    15 1   
    11     9    10 ar  
    12     9    14 ar  
    13    10    11 ar  
    14    11    12 ar  
    15    12    13 ar  
    16    13    14 ar  
    17    16    17 1   
    18    17    18 1   
    19    18    19 1   
    20    19    20 1   
    21    20    21 1   
    22    21    22 1   
    23    22    23 1   
    24    23    24 1   
    25    24    25 1   
    26    25    26 1   
    27    26    27 1   
    28    27    28 1   
    29     3    29 1   
    30     4    30 1   
    31     5    31 1   
    32     5    32 1   
    33     6    33 1   
    34     7    34 1   
    35     7    35 1   
    36     8    36 1   
    37    10    37 1   
    38    11    38 1   
    39    12    39 1   
    40    13    40 1   
    41    14    41 1   
    42    15    42 1   
    43    16    43 1   
    44    16    44 1   
    45    17    45 1   
    46    17    46 1   
    47    18    47 1   
    48    18    48 1   
    49    19    49 1   
    50    19    50 1   
    51    20    51 1   
    52    20    52 1   
    53    21    53 1   
    54    21    54 1   
    55    22    55 1   
    56    22    56 1   
    57    23    57 1   
    58    23    58 1   
    59    24    59 1   
    60    24    60 1   
    61    25    61 1   
    62    25    62 1   
    63    26    63 1   
    64    26    64 1   
    65    27    65 1   
    66    27    66 1   
    67    28    67 1   
    68    28    68 1   
    69    28    69 1   
@<TRIPOS>SUBSTRUCTURE
     1 14H         1 TEMP              0 ****  ****    0 ROOT
