@<TRIPOS>MOLECULE
14H
   70    70     1     0     0
SMALL
bcc


@<TRIPOS>ATOM
      1 O21          0.1340    -0.8060    -0.2740 o          1 14H      -0.418100
      2 C21          1.2300    -0.3140    -0.4930 c          1 14H       0.553100
      3 N2           1.7370     0.6870     0.5220 ny         1 14H      -0.683800
      4 C2           1.5430     0.2390     1.9460 c3         1 14H       0.094500
      5 C1           2.5070    -0.9270     2.2740 c3         1 14H       0.108400
      6 O1           3.8210    -0.5840     1.8960 oh         1 14H      -0.611800
      7 C3           1.7640     1.3850     2.9280 c3         1 14H      -0.117400
      8 C4           0.6970     2.4810     2.8440 c3         1 14H       0.190400
      9 C5           0.9290     3.4320     1.7060 ca         1 14H      -0.199300
     10 C6           2.0550     4.2640     1.7020 ca         1 14H      -0.135500
     11 C7           2.2550     5.1680     0.6600 ca         1 14H      -0.124000
     12 C8           1.3280     5.2530    -0.3800 ca         1 14H      -0.105000
     13 C9           0.1950     4.4380    -0.3720 ca         1 14H      -0.124000
     14 C10         -0.0070     3.5320     0.6680 ca         1 14H      -0.135500
     15 O4           0.7740     3.1400     4.1010 oh         1 14H      -0.584800
     16 C22          2.1400    -0.5700    -1.6580 c3         1 14H      -0.163400
     17 C23          2.2480     0.6450    -2.5600 c3         1 14H      -0.086400
     18 C24          3.2050     0.3660    -3.7030 c3         1 14H      -0.077400
     19 C25          3.2060     1.4840    -4.7250 c3         1 14H      -0.084400
     20 C26          3.7480     2.7860    -4.1730 c3         1 14H      -0.078400
     21 C27          3.8880     3.8240    -5.2670 c3         1 14H      -0.080400
     22 C28          4.3160     5.1730    -4.7280 c3         1 14H      -0.081400
     23 C29          3.1600     5.9510    -4.1360 c3         1 14H      -0.076400
     24 C30          3.5820     7.3130    -3.6250 c3         1 14H      -0.084400
     25 C31          4.2800     7.2370    -2.2840 c3         1 14H      -0.075400
     26 C32          4.7020     8.5980    -1.7720 c3         1 14H      -0.080400
     27 C33          3.5580     9.4330    -1.2330 c3         1 14H      -0.083400
     28 C34          3.0570     8.9510     0.1040 c3         1 14H      -0.092100
     29 HN2          2.7440     0.8380     0.3720 hn         1 14H       0.471300
     30 H2           0.4790    -0.1400     2.0320 hx         1 14H       0.126700
     31 H1           2.2370    -1.8340     1.6640 h1         1 14H       0.087700
     32 H1A          2.4170    -1.1730     3.3630 h1         1 14H       0.087700
     33 HO1          4.3020    -0.2960     2.6830 ho         1 14H       0.437000
     34 H3           2.7830     1.8340     2.7940 hc         1 14H       0.095200
     35 H3A          1.7250     0.9550     3.9680 hc         1 14H       0.095200
     36 H4          -0.3250     2.0090     2.7460 h1         1 14H       0.049700
     37 H6           2.7650     4.2180     2.5440 ha         1 14H       0.148500
     38 H7           3.1380     5.8290     0.6650 ha         1 14H       0.157000
     39 H8           1.4860     5.9760    -1.1990 ha         1 14H       0.162000
     40 H9          -0.5510     4.5260    -1.1770 ha         1 14H       0.157000
     41 H10         -0.9280     2.9280     0.6930 ha         1 14H       0.148500
     42 HO4          0.2180     3.9290     4.0490 ho         1 14H       0.431000
     43 H22          3.1570    -0.8790    -1.2870 hc         1 14H       0.115700
     44 H22A         1.7100    -1.4370    -2.2350 hc         1 14H       0.115700
     45 H23          1.2370     0.9030    -2.9720 hc         1 14H       0.053700
     46 H23A         2.6170     1.5320    -1.9800 hc         1 14H       0.053700
     47 H24          4.2410     0.2230    -3.2980 hc         1 14H       0.054200
     48 H24A         2.9070    -0.5900    -4.2120 hc         1 14H       0.054200
     49 H25          3.8370     1.1630    -5.5980 hc         1 14H       0.057200
     50 H25A         2.1650     1.6440    -5.1110 hc         1 14H       0.057200
     51 H26          3.0610     3.1740    -3.3760 hc         1 14H       0.032200
     52 H26A         4.7470     2.6090    -3.6950 hc         1 14H       0.032200
     53 H27          4.6500     3.4670    -6.0110 hc         1 14H       0.048200
     54 H27A         2.9140     3.9270    -5.8150 hc         1 14H       0.048200
     55 H28          5.1170     5.0350    -3.9550 hc         1 14H       0.047200
     56 H28A         4.7660     5.7710    -5.5650 hc         1 14H       0.047200
     57 H29          2.3710     6.0880    -4.9240 hc         1 14H       0.032200
     58 H29A         2.6940     5.3640    -3.3010 hc         1 14H       0.032200
     59 H30          4.2610     7.8020    -4.3730 hc         1 14H       0.048700
     60 H30A         2.6710     7.9630    -3.5320 hc         1 14H       0.048700
     61 H31          3.6040     6.7440    -1.5350 hc         1 14H       0.028700
     62 H31A         5.1920     6.5890    -2.3810 hc         1 14H       0.028700
     63 H32          5.2020     9.1630    -2.6040 hc         1 14H       0.045200
     64 H32A         5.4660     8.4600    -0.9610 hc         1 14H       0.045200
     65 H33          3.9100    10.4940    -1.1280 hc         1 14H       0.045700
     66 H33A         2.7130     9.4400    -1.9710 hc         1 14H       0.045700
     67 H34          2.6180     7.9260     0.0210 hc         1 14H       0.029700
     68 H34A         2.2650     9.6380     0.4890 hc         1 14H       0.029700
     69 H34B         3.8870     8.9180     0.8500 hc         1 14H       0.029700
     70 H231         1.2430     1.5850     0.3860 hn         1 14H       0.471300
@<TRIPOS>BOND
     1     1     2 2   
     2     2     3 1   
     3     2    16 1   
     4     3     4 1   
     5     3    29 1   
     6     3    70 1   
     7     4     5 1   
     8     4     7 1   
     9     4    30 1   
    10     5     6 1   
    11     5    31 1   
    12     5    32 1   
    13     6    33 1   
    14     7     8 1   
    15     7    34 1   
    16     7    35 1   
    17     8     9 1   
    18     8    15 1   
    19     8    36 1   
    20     9    10 ar  
    21     9    14 ar  
    22    10    11 ar  
    23    10    37 1   
    24    11    12 ar  
    25    11    38 1   
    26    12    13 ar  
    27    12    39 1   
    28    13    14 ar  
    29    13    40 1   
    30    14    41 1   
    31    15    42 1   
    32    16    17 1   
    33    16    43 1   
    34    16    44 1   
    35    17    18 1   
    36    17    45 1   
    37    17    46 1   
    38    18    19 1   
    39    18    47 1   
    40    18    48 1   
    41    19    20 1   
    42    19    49 1   
    43    19    50 1   
    44    20    21 1   
    45    20    51 1   
    46    20    52 1   
    47    21    22 1   
    48    21    53 1   
    49    21    54 1   
    50    22    23 1   
    51    22    55 1   
    52    22    56 1   
    53    23    24 1   
    54    23    57 1   
    55    23    58 1   
    56    24    25 1   
    57    24    59 1   
    58    24    60 1   
    59    25    26 1   
    60    25    61 1   
    61    25    62 1   
    62    26    27 1   
    63    26    63 1   
    64    26    64 1   
    65    27    28 1   
    66    27    65 1   
    67    27    66 1   
    68    28    67 1   
    69    28    68 1   
    70    28    69 1   
@<TRIPOS>SUBSTRUCTURE
     1 14H         1 TEMP              0 ****  ****    0 ROOT
