@<TRIPOS>MOLECULE
14J
   11    11     1     0     0
SMALL
bcc


@<TRIPOS>ATOM
      1 C01        -0.0660    0.0350   -0.0210 cc        1 14J     -0.312300
      2 C02         1.3250    0.0160   -0.0350 cd        1 14J      0.266200
      3 O03         1.8070   -0.0050    1.2680 os        1 14J     -0.306800
      4 C04         0.6880    0.0020    2.1140 cd        1 14J      0.205900
      5 C05        -0.4740    0.0260    1.3570 cc        1 14J     -0.223300
      6 BR1         0.9380   -0.0220    3.9410 br        1 14J     -0.158200
      7 C07         2.3280    0.0140   -1.1790 c         1 14J      0.828100
      8 O08         1.8280    0.0260   -2.3360 o         1 14J     -0.798300
      9 O09         3.5530    0.0020   -0.9030 o         1 14J     -0.798300
     10 H1         -0.7130    0.0530   -0.8910 ha        1 14J      0.160000
     11 H2         -1.4950    0.0360    1.7240 ha        1 14J      0.138000
@<TRIPOS>BOND
     1    1    2 2   
     2    1    5 1   
     3    1   10 1   
     4    2    3 1   
     5    2    7 1   
     6    3    4 1   
     7    4    5 2   
     8    4    6 1   
     9    5   11 1   
    10    7    8 1   
    11    7    9 1   
@<TRIPOS>SUBSTRUCTURE
     1 14J         1 TEMP              0 ****  ****    0 ROOT
