@<TRIPOS>MOLECULE
14K
   64    67     1     0     0
SMALL
bcc


@<TRIPOS>ATOM
      1 C15          0.1850     0.4870    -0.2370 c3         1 14K       0.124700
      2 O14          1.5890     0.6720    -0.0570 os         1 14K      -0.434100
      3 C11          2.0860     0.5390     1.2220 ca         1 14K       0.582600
      4 C12          3.5050     0.7090     1.3350 ca         1 14K       0.011600
      5 C13          4.0930     0.5960     2.6010 ca         1 14K      -0.095000
      6 F16          4.2520     0.9780     0.2440 f          1 14K      -0.116900
      7 N10          1.2930     0.2740     2.2850 nb         1 14K      -0.695000
      8 C9           1.8790     0.1590     3.4870 ca         1 14K       0.379200
      9 C8           3.2740     0.3120     3.7140 ca         1 14K       0.010300
     10 N7           3.7920     0.2720     5.0260 nu         1 14K      -0.707300
     11 C2           4.8360    -0.6010     5.3830 ca         1 14K       0.679200
     12 N1           5.4530    -1.3550     4.4130 nb         1 14K      -0.721000
     13 C6           6.4980    -2.1120     4.7600 ca         1 14K       0.473200
     14 C5           7.0200    -2.1960     6.0690 ca         1 14K      -0.256600
     15 C25          8.1800    -3.1020     6.3910 c3         1 14K       0.243800
     16 C36          7.6850    -4.5500     6.3300 c3         1 14K      -0.095100
     17 N26          9.3250    -2.8380     5.5020 n3         1 14K      -0.725600
     18 C31         10.3630    -3.8530     5.6030 c3         1 14K       0.151300
     19 C30         11.6080    -3.5340     4.7450 c3         1 14K       0.222800
     20 C27          9.8390    -1.4870     5.6850 c3         1 14K       0.151300
     21 C28         11.0740    -1.1880     4.8100 c3         1 14K       0.222800
     22 N29         12.1000    -2.1930     4.9230 n3         1 14K      -0.821500
     23 S32         13.6430    -1.8510     5.2890 s6         1 14K       1.461900
     24 C33         13.6550    -1.8560     6.9960 c3         1 14K      -0.363300
     25 O35         13.9680    -0.5450     4.8700 o          1 14K      -0.650300
     26 O34         14.4880    -2.8950     4.8590 o          1 14K      -0.650300
     27 C4           6.4010    -1.4350     7.0600 ca         1 14K      -0.023000
     28 C3           5.2980    -0.6360     6.7400 cp         1 14K      -0.307800
     29 C17          4.6630     0.1490     7.8280 cp         1 14K       0.775500
     30 N22          5.4920     0.9290     8.5820 nb         1 14K      -0.786000
     31 N18          3.3120     0.0140     8.0170 nb         1 14K      -0.797000
     32 C19          2.7880     0.7370     9.0600 ca         1 14K       0.713300
     33 C23          1.3010     0.6180     9.3010 c3         1 14K      -0.142400
     34 N20          3.4980     1.5510     9.8890 nb         1 14K      -0.789000
     35 C21          4.8670     1.6190     9.6220 ca         1 14K       0.907900
     36 N24          5.6550     2.3830    10.4600 nv         1 14K      -0.941500
     37 H1          -0.3900     1.2500     0.3400 h1         1 14K       0.051033
     38 H2           0.0540     0.6370    -1.3390 h1         1 14K       0.051033
     39 H3          -0.1190    -0.5440     0.0650 h1         1 14K       0.051033
     40 H4           5.1820     0.7250     2.7030 ha         1 14K       0.172000
     41 H5           1.1830    -0.0630     4.3170 h4         1 14K       0.028100
     42 H6           3.0880     0.3760     5.7290 hn         1 14K       0.444800
     43 H7           6.9530    -2.6970     3.9360 h4         1 14K       0.041100
     44 H8           8.4850    -2.9010     7.4690 h1         1 14K       0.025700
     45 H9           7.4780    -4.8620     5.2790 hc         1 14K       0.045700
     46 H10          8.4370    -5.2440     6.7760 hc         1 14K       0.045700
     47 H11          6.7390    -4.6310     6.9190 hc         1 14K       0.045700
     48 H13         10.6880    -4.0160     6.6720 h1         1 14K       0.040950
     49 H14          9.9390    -4.8220     5.2160 h1         1 14K       0.040950
     50 H15         11.3420    -3.6840     3.6580 h1         1 14K       0.064950
     51 H16         12.4200    -4.2690     5.0120 h1         1 14K       0.064950
     52 H17         10.1020    -1.2830     6.7650 h1         1 14K       0.040950
     53 H18          9.0240    -0.7690     5.3870 h1         1 14K       0.040950
     54 H19         11.4950    -0.1880     5.1170 h1         1 14K       0.064950
     55 H20         10.7470    -1.1150     3.7330 h1         1 14K       0.064950
     56 H21         13.4130    -2.8530     7.4360 h1         1 14K       0.111033
     57 H22         14.6730    -1.5850     7.3740 h1         1 14K       0.111033
     58 H23         12.9480    -1.1200     7.4480 h1         1 14K       0.111033
     59 H24          6.7750    -1.4620     8.0960 ha         1 14K       0.151000
     60 H25          1.0230    -0.4600     9.4010 hc         1 14K       0.067700
     61 H26          0.7530     1.0540     8.4290 hc         1 14K       0.067700
     62 H27          0.9950     1.1600    10.2290 hc         1 14K       0.067700
     63 H28          5.2150     2.9850    11.1130 hn         1 14K       0.447300
     64 H29          6.5950     2.5620    10.2030 hn         1 14K       0.447300
@<TRIPOS>BOND
     1     1     2 1   
     2     1    37 1   
     3     1    38 1   
     4     1    39 1   
     5     2     3 1   
     6     3     4 ar  
     7     3     7 ar  
     8     4     5 ar  
     9     4     6 1   
    10     5     9 ar  
    11     5    40 1   
    12     7     8 ar  
    13     8     9 ar  
    14     8    41 1   
    15     9    10 1   
    16    10    11 1   
    17    10    42 1   
    18    11    12 ar  
    19    11    28 ar  
    20    12    13 ar  
    21    13    14 ar  
    22    13    43 1   
    23    14    15 1   
    24    14    27 ar  
    25    15    16 1   
    26    15    17 1   
    27    15    44 1   
    28    16    45 1   
    29    16    46 1   
    30    16    47 1   
    31    17    18 1   
    32    17    20 1   
    33    18    19 1   
    34    18    48 1   
    35    18    49 1   
    36    19    22 1   
    37    19    50 1   
    38    19    51 1   
    39    20    21 1   
    40    20    52 1   
    41    20    53 1   
    42    21    22 1   
    43    21    54 1   
    44    21    55 1   
    45    22    23 1   
    46    23    24 1   
    47    23    25 2   
    48    23    26 2   
    49    24    56 1   
    50    24    57 1   
    51    24    58 1   
    52    27    28 ar  
    53    27    59 1   
    54    28    29 1   
    55    29    30 ar  
    56    29    31 ar  
    57    30    35 ar  
    58    31    32 ar  
    59    32    33 1   
    60    32    34 ar  
    61    33    60 1   
    62    33    61 1   
    63    33    62 1   
    64    34    35 ar  
    65    35    36 1   
    66    36    63 1   
    67    36    64 1   
@<TRIPOS>SUBSTRUCTURE
     1 14K         1 TEMP              0 ****  ****    0 ROOT
