@<TRIPOS>MOLECULE
molecule
   64    67     1     0     0
SMALL
bcc


@<TRIPOS>ATOM
      1 C15          0.0000     0.0000     0.0000 c3         1 14K       0.139700
      2 O14          1.4300     0.0000     0.0000 os         1 14K      -0.436100
      3 C11          2.0460     0.0000     1.2100 ca         1 14K       0.594600
      4 C12          3.4360     0.0040     1.2740 ca         1 14K       0.015600
      5 C13          4.0540     0.0050     2.5120 ca         1 14K      -0.157000
      6 F16          4.1730     0.0090     0.1410 f          1 14K      -0.128900
      7 N10          1.3190    -0.0000     2.3140 nb         1 14K      -0.730000
      8 C9           1.8740     0.0000     3.5110 ca         1 14K       0.391200
      9 C8           3.2540     0.0010     3.6540 ca         1 14K       0.012300
     10 N7           3.8350     0.0000     4.9270 nu         1 14K      -0.744300
     11 C2           3.0560    -0.2600     6.0440 ca         1 14K       0.734200
     12 N1           1.7440    -0.3820     5.9170 nb         1 14K      -0.771000
     13 C6           0.9660    -0.6290     6.9540 ca         1 14K       0.494200
     14 C5           1.4910    -0.7710     8.2250 ca         1 14K      -0.287600
     15 C25          0.5850    -1.0540     9.3950 c3         1 14K       0.229800
     16 C36          0.6840    -2.5340     9.7720 c3         1 14K      -0.089100
     17 N26          0.9910    -0.2280    10.5400 n3         1 14K      -0.731600
     18 C31          0.0970    -0.4410    11.6860 c3         1 14K       0.151300
     19 C30          0.6550     0.2940    12.9090 c3         1 14K       0.236800
     20 C27          1.0530     1.1930    10.1690 c3         1 14K       0.151300
     21 C28          1.6510     1.9940    11.3300 c3         1 14K       0.236800
     22 N29          0.8780     1.7020    12.5460 n3         1 14K      -0.822500
     23 S32          0.2740     2.9260    13.4850 s6         1 14K       1.324900
     24 C33          1.5910     3.2700    14.6830 c3         1 14K      -0.248300
     25 O35          0.1230     4.0160    12.5840 o          1 14K      -0.629300
     26 O34         -0.8520     2.3490    14.1320 o          1 14K      -0.629300
     27 C4           2.8580    -0.6530     8.4140 ca         1 14K       0.026000
     28 C3           3.6630    -0.3970     7.3020 cp         1 14K      -0.353800
     29 C17          5.1300    -0.2670     7.4470 cp         1 14K       0.819500
     30 N22          5.6890    -0.3380     8.6520 nb         1 14K      -0.802000
     31 N18          5.8950    -0.0840     6.3710 nb         1 14K      -0.837000
     32 C19          7.2040     0.0320     6.5010 ca         1 14K       0.748300
     33 C23          8.0650     0.2390     5.2810 c3         1 14K      -0.133400
     34 N20          7.7610    -0.0330     7.6970 nb         1 14K      -0.806000
     35 C21          7.0060    -0.2210     8.7770 ca         1 14K       0.987900
     36 N24          7.5910    -0.2930    10.0250 nv         1 14K      -1.058500
     37 H1          -0.3610    -0.8860     0.5090 h1         1 14K       0.045033
     38 H2          -0.3610     0.8830     0.5120 h1         1 14K       0.045033
     39 H3          -0.3610     0.0020    -1.0210 h1         1 14K       0.045033
     40 H4           5.1350     0.0070     2.5930 ha         1 14K       0.152000
     41 H5           1.2450    -0.0020     4.3930 h4         1 14K       0.105100
     42 H6           4.8010     0.2380     5.0360 hn         1 14K       0.503800
     43 H7          -0.1030    -0.7220     6.8060 h4         1 14K       0.029100
     44 H8          -0.4370    -0.8180     9.1240 h1         1 14K       0.031700
     45 H9          -0.2170    -2.8350    10.2920 hc         1 14K       0.044367
     46 H10          1.5410    -2.6850    10.4170 hc         1 14K       0.044367
     47 H11          0.7980    -3.1280     8.8740 hc         1 14K       0.044367
     48 H13         -0.8880    -0.0550    11.4520 h1         1 14K       0.047700
     49 H14          0.0340    -1.5010    11.9010 h1         1 14K       0.047700
     50 H15         -0.0570     0.2370    13.7230 h1         1 14K       0.060700
     51 H16          1.5940    -0.1570    13.2060 h1         1 14K       0.060700
     52 H17          1.6770     1.3090     9.2920 h1         1 14K       0.047700
     53 H18          0.0530     1.5540     9.9590 h1         1 14K       0.047700
     54 H19          1.5920     3.0530    11.1090 h1         1 14K       0.060700
     55 H20          2.6840     1.7040    11.4780 h1         1 14K       0.060700
     56 H21          1.2730     4.0590    15.3530 h1         1 14K       0.096033
     57 H22          2.4850     3.5820    14.1570 h1         1 14K       0.096033
     58 H23          1.8030     2.3740    15.2540 h1         1 14K       0.096033
     59 H24          3.2940    -0.7630     9.4000 ha         1 14K       0.181000
     60 H25          7.7760     1.1580     4.7870 hc         1 14K       0.067700
     61 H26          9.1040     0.3010     5.5790 hc         1 14K       0.067700
     62 H27          7.9330    -0.5940     4.6010 hc         1 14K       0.067700
     63 H28          7.7910    -1.1850    10.4330 hn         1 14K       0.452300
     64 H29          7.8310     0.5460    10.5150 hn         1 14K       0.452300
@<TRIPOS>BOND
     1    26    23 2
     2    24    23 1
     3    25    23 2
     4    23    22 1
     5    19    22 1
     6    19    18 1
     7     6     4 1
     8    22    21 1
     9    21    20 1
    10    18    17 1
    11     4     5 ar
    12     4     3 ar
    13     2     3 1
    14     2     1 1
    15     5     9 ar
    16     3     7 ar
    17    17    20 1
    18    17    15 1
    19    13    12 ar
    20    13    14 ar
    21    12    11 ar
    22     9    10 1
    23     9     8 ar
    24    15    16 1
    25    15    14 1
    26     7     8 ar
    27    14    27 ar
    28    11    10 1
    29    11    28 ar
    30    27    28 ar
    31    28    29 1
    32    29    30 ar
    33    29    31 ar
    34    30    35 ar
    35    31    32 ar
    36    35    36 1
    37    35    34 ar
    38    32    34 ar
    39    32    33 1
    40     1    37 1
    41     1    38 1
    42     1    39 1
    43     5    40 1
    44     8    41 1
    45    10    42 1
    46    13    43 1
    47    15    44 1
    48    16    45 1
    49    16    46 1
    50    16    47 1
    51    18    48 1
    52    18    49 1
    53    19    50 1
    54    19    51 1
    55    20    52 1
    56    20    53 1
    57    21    54 1
    58    21    55 1
    59    24    56 1
    60    24    57 1
    61    24    58 1
    62    27    59 1
    63    33    60 1
    64    33    61 1
    65    33    62 1
    66    36    63 1
    67    36    64 1
@<TRIPOS>SUBSTRUCTURE
     1 14K         1 TEMP              0 ****  ****    0 ROOT
