@<TRIPOS>MOLECULE
14M
   61    63     1     0     0
SMALL
bcc


@<TRIPOS>ATOM
      1 C1           0.0000     0.0000     0.0000 c          1 14M       0.981600
      2 C2           1.5080     0.0000     0.0000 c3         1 14M      -0.143400
      3 C3           2.0170     0.0000     1.4420 c3         1 14M      -0.026700
      4 C7           1.6170     1.3110     2.1260 c3         1 14M      -0.050400
      5 C8           5.5010     0.8680     0.6040 ca         1 14M       0.545200
      6 C9           7.3970    -0.3970     0.9930 ca         1 14M       0.620600
      7 C10          8.2000     0.5590     0.3450 ca         1 14M      -0.325900
      8 C11          7.5920     1.7080    -0.1860 ca         1 14M      -0.016000
      9 C12          6.2390     1.8540    -0.0510 ca         1 14M      -0.277300
     10 C13          9.6520     0.3580     0.2240 c          1 14M       0.608700
     11 C14         11.8570     1.0810    -0.5200 c3         1 14M       0.021700
     12 C15         12.3800     1.8590    -1.7290 c3         1 14M      -0.041400
     13 C16         13.8910     1.6500    -1.8540 c3         1 14M      -0.018400
     14 C19         12.5480     1.5830     0.7490 c3         1 14M      -0.041400
     15 C20          6.6650    -2.6610     2.3440 c3         1 14M       0.041700
     16 C21          7.0700    -3.9820     3.0010 c3         1 14M      -0.006400
     17 C22          5.8280    -4.6690     3.5720 c3         1 14M       0.004900
     18 S1           8.1340    -1.8480     1.6680 ss         1 14M      -0.359400
     19 O1          -0.6030     0.0000     1.0470 o          1 14M      -0.902800
     20 O2          -0.6710     0.0050    -1.1620 o          1 14M      -0.902800
     21 O3          10.1670    -0.6410     0.6870 o          1 14M      -0.627100
     22 N1           4.1300     1.0170     0.7350 nh         1 14M      -0.425300
     23 N2           6.0890    -0.2110     1.0990 nb         1 14M      -0.661000
     24 N3          10.4110     1.2810    -0.4000 ns         1 14M      -0.207900
     25 C4           3.5430    -0.1260     1.4440 c3         1 14M       0.126800
     26 C5           3.8000     2.2830     1.4000 c3         1 14M       0.141800
     27 C6           2.2820     2.4810     1.3960 c3         1 14M      -0.038400
     28 C17         14.5820     2.1510    -0.5860 c3         1 14M      -0.028400
     29 C18         14.0590     1.3730     0.6230 c3         1 14M      -0.018400
     30 H1           1.8690    -0.8850    -0.5110 hc         1 14M       0.017700
     31 H2           1.8690     0.8840    -0.5110 hc         1 14M       0.017700
     32 H3           1.5870    -0.8340     1.9830 hc         1 14M       0.044700
     33 H4           0.5410     1.4250     2.0860 hc         1 14M       0.038200
     34 H5           1.9470     1.2960     3.1580 hc         1 14M       0.038200
     35 H6           8.1830     2.4630    -0.6910 ha         1 14M       0.098000
     36 H7           5.7430     2.7310    -0.4510 ha         1 14M       0.129000
     37 H8          12.0700     0.0270    -0.6520 h1         1 14M       0.059700
     38 H9          11.8910     1.5010    -2.6270 hc         1 14M       0.020700
     39 H10         12.1730     2.9140    -1.5950 hc         1 14M       0.020700
     40 H11         14.0980     0.5940    -1.9840 hc         1 14M       0.014200
     41 H12         14.2610     2.2030    -2.7090 hc         1 14M       0.014200
     42 H13         12.1780     1.0290     1.6030 hc         1 14M       0.020700
     43 H14         12.3410     2.6380     0.8780 hc         1 14M       0.020700
     44 H15          6.2030    -2.0170     3.0820 h1         1 14M       0.050700
     45 H16          5.9600    -2.8560     1.5440 h1         1 14M       0.050700
     46 H17          7.5320    -4.6260     2.2620 hc         1 14M       0.017200
     47 H18          7.7750    -3.7870     3.8000 hc         1 14M       0.017200
     48 H19          5.1240    -4.8650     2.7730 hc         1 14M       0.001700
     49 H20          5.3670    -4.0240     4.3100 hc         1 14M       0.001700
     50 H21          6.1150    -5.6040     4.0380 hc         1 14M       0.001700
     51 H23          9.9840     2.0970    -0.7910 hn         1 14M       0.176500
     52 H24          3.8290    -1.0440     0.9460 h1         1 14M       0.019200
     53 H25          3.9010    -0.1370     2.4670 h1         1 14M       0.019200
     54 H26          4.1560     2.2560     2.4230 h1         1 14M       0.005200
     55 H27          4.2710     3.1020     0.8690 h1         1 14M       0.005200
     56 H28          2.0380     3.4070     1.9010 hc         1 14M       0.026200
     57 H29          1.9260     2.5160     0.3730 hc         1 14M       0.026200
     58 H30         15.6510     2.0000    -0.6750 hc         1 14M       0.010200
     59 H31         14.3710     3.2050    -0.4530 hc         1 14M       0.010200
     60 H32         14.2660     0.3180     0.4890 hc         1 14M       0.014200
     61 H33         14.5480     1.7310     1.5210 hc         1 14M       0.014200
@<TRIPOS>BOND
     1     1     2 1   
     2     1    19 1   
     3     1    20 1   
     4     2     3 1   
     5     2    30 1   
     6     2    31 1   
     7     3     4 1   
     8     3    25 1   
     9     3    32 1   
    10     4    27 1   
    11     4    33 1   
    12     4    34 1   
    13     5     9 ar  
    14     5    22 1   
    15     5    23 ar  
    16     6     7 ar  
    17     6    18 1   
    18     6    23 ar  
    19     7     8 ar  
    20     7    10 1   
    21     8     9 ar  
    22     8    35 1   
    23     9    36 1   
    24    10    21 2   
    25    10    24 1   
    26    11    12 1   
    27    11    14 1   
    28    11    24 1   
    29    11    37 1   
    30    12    13 1   
    31    12    38 1   
    32    12    39 1   
    33    13    28 1   
    34    13    40 1   
    35    13    41 1   
    36    14    29 1   
    37    14    42 1   
    38    14    43 1   
    39    15    16 1   
    40    15    18 1   
    41    15    44 1   
    42    15    45 1   
    43    16    17 1   
    44    16    46 1   
    45    16    47 1   
    46    17    48 1   
    47    17    49 1   
    48    17    50 1   
    49    22    25 1   
    50    22    26 1   
    51    24    51 1   
    52    25    52 1   
    53    25    53 1   
    54    26    27 1   
    55    26    54 1   
    56    26    55 1   
    57    27    56 1   
    58    27    57 1   
    59    28    29 1   
    60    28    58 1   
    61    28    59 1   
    62    29    60 1   
    63    29    61 1   
@<TRIPOS>SUBSTRUCTURE
     1 14M         1 TEMP              0 ****  ****    0 ROOT
