@<TRIPOS>MOLECULE
molecule
   61    63     1     0     0
SMALL
bcc


@<TRIPOS>ATOM
      1 C1           0.0000     0.0000     0.0000 c          1 14M       0.889600
      2 C2           1.5080     0.0000     0.0000 c3         1 14M      -0.179400
      3 C3           2.0170     0.0000     1.4420 c3         1 14M      -0.052700
      4 C7           1.6170     1.3110     2.1260 c3         1 14M      -0.080400
      5 C8           5.5010     0.8680     0.6040 ca         1 14M       0.672200
      6 C9           7.3970    -0.3970     0.9930 ca         1 14M       0.614600
      7 C10          8.2000     0.5590     0.3450 ca         1 14M      -0.330900
      8 C11          7.5920     1.7080    -0.1860 ca         1 14M      -0.040000
      9 C12          6.2390     1.8540    -0.0510 ca         1 14M      -0.300300
     10 C13          9.6520     0.3580     0.2240 c          1 14M       0.684700
     11 C14         11.8570     1.0810    -0.5200 c3         1 14M       0.120700
     12 C15         12.3800     1.8590    -1.7290 c3         1 14M      -0.093900
     13 C16         13.8910     1.6500    -1.8540 c3         1 14M      -0.076900
     14 C19         12.5480     1.5830     0.7490 c3         1 14M      -0.093900
     15 C20          6.6650    -2.6610     2.3440 c3         1 14M      -0.044300
     16 C21          7.0700    -3.9820     3.0010 c3         1 14M      -0.070400
     17 C22          5.8280    -4.6690     3.5720 c3         1 14M      -0.089100
     18 S1           8.1340    -1.8480     1.6680 ss         1 14M      -0.223400
     19 O1          -0.6030     0.0000     1.0470 o          1 14M      -0.857300
     20 O2          -0.6710     0.0050    -1.1620 o          1 14M      -0.857300
     21 O3          10.1670    -0.6410     0.6870 o          1 14M      -0.608100
     22 N1           4.1300     1.0170     0.7350 nh         1 14M      -0.675300
     23 N2           6.0890    -0.2110     1.0990 nb         1 14M      -0.766000
     24 N3          10.4110     1.2810    -0.4000 ns         1 14M      -0.585900
     25 C4           3.5430    -0.1260     1.4440 c3         1 14M       0.166800
     26 C5           3.8000     2.2830     1.4000 c3         1 14M       0.172800
     27 C6           2.2820     2.4810     1.3960 c3         1 14M      -0.085400
     28 C17         14.5820     2.1510    -0.5860 c3         1 14M      -0.083400
     29 C18         14.0590     1.3730     0.6230 c3         1 14M      -0.076900
     30 H1           1.8690    -0.8850    -0.5110 hc         1 14M       0.039200
     31 H2           1.8690     0.8840    -0.5110 hc         1 14M       0.039200
     32 H3           1.5870    -0.8340     1.9830 hc         1 14M       0.068700
     33 H4           0.5410     1.4250     2.0860 hc         1 14M       0.058200
     34 H5           1.9470     1.2960     3.1580 hc         1 14M       0.058200
     35 H6           8.1830     2.4630    -0.6910 ha         1 14M       0.122000
     36 H7           5.7430     2.7310    -0.4510 ha         1 14M       0.147000
     37 H8          12.0700     0.0270    -0.6520 h1         1 14M       0.080700
     38 H9          11.8910     1.5010    -2.6270 hc         1 14M       0.047700
     39 H10         12.1730     2.9140    -1.5950 hc         1 14M       0.047700
     40 H11         14.0980     0.5940    -1.9840 hc         1 14M       0.042200
     41 H12         14.2610     2.2030    -2.7090 hc         1 14M       0.042200
     42 H13         12.1780     1.0290     1.6030 hc         1 14M       0.047700
     43 H14         12.3410     2.6380     0.8780 hc         1 14M       0.047700
     44 H15          6.2030    -2.0170     3.0820 h1         1 14M       0.075700
     45 H16          5.9600    -2.8560     1.5440 h1         1 14M       0.075700
     46 H17          7.5320    -4.6260     2.2620 hc         1 14M       0.043200
     47 H18          7.7750    -3.7870     3.8000 hc         1 14M       0.043200
     48 H19          5.1240    -4.8650     2.7730 hc         1 14M       0.034700
     49 H20          5.3670    -4.0240     4.3100 hc         1 14M       0.034700
     50 H21          6.1150    -5.6040     4.0380 hc         1 14M       0.034700
     51 H23          9.9840     2.0970    -0.7910 hn         1 14M       0.311500
     52 H24          3.8290    -1.0440     0.9460 h1         1 14M       0.041700
     53 H25          3.9010    -0.1370     2.4670 h1         1 14M       0.041700
     54 H26          4.1560     2.2560     2.4230 h1         1 14M       0.029200
     55 H27          4.2710     3.1020     0.8690 h1         1 14M       0.029200
     56 H28          2.0380     3.4070     1.9010 hc         1 14M       0.052200
     57 H29          1.9260     2.5160     0.3730 hc         1 14M       0.052200
     58 H30         15.6510     2.0000    -0.6750 hc         1 14M       0.037700
     59 H31         14.3710     3.2050    -0.4530 hc         1 14M       0.037700
     60 H32         14.2660     0.3180     0.4890 hc         1 14M       0.042200
     61 H33         14.5480     1.7310     1.5210 hc         1 14M       0.042200
@<TRIPOS>BOND
     1     4    27 1   
     2     4     3 1   
     3     2     3 1   
     4     2     1 1   
     5    27    26 1   
     6     3    25 1   
     7     1    19 1   
     8     1    20 1   
     9    26    22 1   
    10    25    22 1   
    11    17    16 1   
    12    22     5 1   
    13    16    15 1   
    14     5    23 ar  
    15     5     9 ar  
    16    23     6 ar  
    17     9     8 ar  
    18    15    18 1   
    19     6    18 1   
    20     6     7 ar  
    21     8     7 ar  
    22     7    10 1   
    23    24    10 1   
    24    24    11 1   
    25    14    11 1   
    26    14    29 1   
    27    12    11 1   
    28    12    13 1   
    29    10    21 2   
    30    28    29 1   
    31    28    13 1   
    32     2    30 1   
    33     2    31 1   
    34     3    32 1   
    35     4    33 1   
    36     4    34 1   
    37     8    35 1   
    38     9    36 1   
    39    11    37 1   
    40    12    38 1   
    41    12    39 1   
    42    13    40 1   
    43    13    41 1   
    44    14    42 1   
    45    14    43 1   
    46    15    44 1   
    47    15    45 1   
    48    16    46 1   
    49    16    47 1   
    50    17    48 1   
    51    17    49 1   
    52    17    50 1   
    53    24    51 1   
    54    25    52 1   
    55    25    53 1   
    56    26    54 1   
    57    26    55 1   
    58    27    56 1   
    59    27    57 1   
    60    28    58 1   
    61    28    59 1   
    62    29    60 1   
    63    29    61 1   
@<TRIPOS>SUBSTRUCTURE
     1 14M         1 TEMP              0 ****  ****    0 ROOT
