@<TRIPOS>MOLECULE
14M
   62    64     1     0     0
SMALL
bcc


@<TRIPOS>ATOM
      1 C1          -0.3050     0.7240     0.4540 c          1 14M       0.913600
      2 C2           1.0810     0.1480     0.0950 c3         1 14M      -0.198400
      3 C3           1.9150    -0.0270     1.3440 c3         1 14M      -0.064700
      4 C7           3.4100    -0.1530     1.1020 c3         1 14M      -0.086400
      5 C8           1.5170    -0.6600     4.4780 ca         1 14M       0.730200
      6 C9           1.6420     0.0540     6.7140 ca         1 14M       0.623600
      7 C10          0.3390     0.6080     6.6860 ca         1 14M      -0.432900
      8 C11         -0.4090     0.4410     5.4890 ca         1 14M       0.000000
      9 C12          0.1600    -0.1520     4.3940 ca         1 14M      -0.284300
     10 C13         -0.2870     1.3370     7.7650 c          1 14M       0.612700
     11 C14         -0.0240     3.2330     9.4600 c3         1 14M       0.122500
     12 C15         -1.0380     4.2680     8.9560 c3         1 14M      -0.095900
     13 C16         -1.6660     4.9860    10.1340 c3         1 14M      -0.076400
     14 C19          1.0580     3.9210    10.3030 c3         1 14M      -0.095900
     15 C20          4.1850    -0.2920     7.9530 c3         1 14M       0.014700
     16 C21          4.9800     0.8400     7.3580 c3         1 14M      -0.082400
     17 C22          6.4490     0.4990     7.3110 c3         1 14M      -0.095100
     18 S1           2.4740     0.0970     8.2290 ss         1 14M      -0.400400
     19 O1          -0.7790     1.6240    -0.2830 o          1 14M      -0.845800
     20 O2          -0.9040     0.2700     1.4820 o          1 14M      -0.845800
     21 O3          -1.4140     1.2480     8.2310 o          1 14M      -0.451100
     22 N1           2.0900    -1.3450     3.4250 nh         1 14M      -0.689300
     23 N2           2.2200    -0.5370     5.6700 nb         1 14M      -0.770000
     24 N3           0.5880     2.4620     8.3300 ny         1 14M      -0.696800
     25 C4           1.4540    -1.2780     2.1080 c3         1 14M       0.155800
     26 C5           3.5410    -1.4460     3.2910 c3         1 14M       0.186800
     27 C6           4.1520    -0.3460     2.4130 c3         1 14M      -0.102400
     28 C17         -0.6190     5.6410    11.0090 c3         1 14M      -0.087400
     29 C18          0.4140     4.6370    11.4740 c3         1 14M      -0.076400
     30 H1           0.9370    -0.8300    -0.4280 hc         1 14M       0.042200
     31 H2           1.5930     0.8490    -0.6100 hc         1 14M       0.042200
     32 H3           1.7330     0.8800     1.9900 hc         1 14M       0.055700
     33 H4           3.6100    -1.0210     0.4210 hc         1 14M       0.046700
     34 H5           3.7910     0.7690     0.5900 hc         1 14M       0.046700
     35 H6          -1.4420     0.8250     5.4370 ha         1 14M       0.165000
     36 H7          -0.4090    -0.1760     3.4340 ha         1 14M       0.260000
     37 H8          -0.5700     2.4800    10.1060 hx         1 14M       0.114700
     38 H9          -1.8400     3.7540     8.3630 hc         1 14M       0.061700
     39 H10         -0.5290     5.0130     8.2900 hc         1 14M       0.061700
     40 H11         -2.3750     5.7630     9.7450 hc         1 14M       0.060700
     41 H12         -2.2650     4.2570    10.7410 hc         1 14M       0.060700
     42 H13          1.6200     4.6620     9.6750 hc         1 14M       0.061700
     43 H14          1.7910     3.1650    10.6900 hc         1 14M       0.061700
     44 H15          4.5520    -0.5380     8.9830 h1         1 14M       0.096200
     45 H16          4.2770    -1.2080     7.3190 h1         1 14M       0.096200
     46 H17          4.6140     1.0530     6.3180 hc         1 14M       0.048700
     47 H18          4.8320     1.7720     7.9650 hc         1 14M       0.048700
     48 H19          6.8450     0.3100     8.3380 hc         1 14M       0.043033
     49 H20          7.0230     1.3450     6.8610 hc         1 14M       0.043033
     50 H21          6.6220    -0.4140     6.6920 hc         1 14M       0.043033
     51 H23          0.7880     3.1010     7.5550 hn         1 14M       0.457800
     52 H24          0.3270    -1.2960     2.1700 h1         1 14M       0.099200
     53 H25          1.7750    -2.2050     1.5520 h1         1 14M       0.099200
     54 H26          4.0460    -1.4470     4.2930 h1         1 14M       0.063200
     55 H27          3.7370    -2.4480     2.8090 h1         1 14M       0.063200
     56 H28          4.1540     0.6200     2.9820 hc         1 14M       0.042700
     57 H29          5.2190    -0.6230     2.2100 hc         1 14M       0.042700
     58 H30         -1.1150     6.1050    11.9010 hc         1 14M       0.056200
     59 H31         -0.1140     6.4650    10.4400 hc         1 14M       0.056200
     60 H32         -0.0690     3.8850    12.1530 hc         1 14M       0.060700
     61 H33          1.2130     5.1600    12.0620 hc         1 14M       0.060700
     62 H321         1.4850     2.0410     8.6380 hn         1 14M       0.457800
@<TRIPOS>BOND
     1     1     2 1   
     2     1    19 1   
     3     1    20 1   
     4     2     3 1   
     5     2    30 1   
     6     2    31 1   
     7     3     4 1   
     8     3    25 1   
     9     3    32 1   
    10     4    27 1   
    11     4    33 1   
    12     4    34 1   
    13     5     9 ar  
    14     5    22 1   
    15     5    23 ar  
    16     6     7 ar  
    17     6    18 1   
    18     6    23 ar  
    19     7     8 ar  
    20     7    10 1   
    21     8     9 ar  
    22     8    35 1   
    23     9    36 1   
    24    10    21 2   
    25    10    24 1   
    26    11    12 1   
    27    11    14 1   
    28    11    24 1   
    29    11    37 1   
    30    12    13 1   
    31    12    38 1   
    32    12    39 1   
    33    13    28 1   
    34    13    40 1   
    35    13    41 1   
    36    14    29 1   
    37    14    42 1   
    38    14    43 1   
    39    15    16 1   
    40    15    18 1   
    41    15    44 1   
    42    15    45 1   
    43    16    17 1   
    44    16    46 1   
    45    16    47 1   
    46    17    48 1   
    47    17    49 1   
    48    17    50 1   
    49    22    25 1   
    50    22    26 1   
    51    24    51 1   
    52    24    62 1   
    53    25    52 1   
    54    25    53 1   
    55    26    27 1   
    56    26    54 1   
    57    26    55 1   
    58    27    56 1   
    59    27    57 1   
    60    28    29 1   
    61    28    58 1   
    62    28    59 1   
    63    29    60 1   
    64    29    61 1   
@<TRIPOS>SUBSTRUCTURE
     1 14M         1 TEMP              0 ****  ****    0 ROOT
