@<TRIPOS>MOLECULE
14N
   31    32     1     0     0
SMALL
bcc


@<TRIPOS>ATOM
      1 C3           1.0720     1.5010     1.0260 c3         1 14N       0.145300
      2 C2           2.3290     0.8120     0.4520 c3         1 14N       0.156300
      3 N1           2.7770    -0.3830     1.1600 n3         1 14N      -0.721600
      4 C1           2.6560    -1.5910     0.3710 c3         1 14N       0.153100
      5 C5           2.1470    -0.4950     2.4660 c3         1 14N       0.156300
      6 C4           0.6080    -0.3890     2.4800 c3         1 14N       0.145300
      7 N2           0.0730     0.5540     1.5040 nh         1 14N      -0.613000
      8 C6          -1.1240     1.2130     1.9620 ca         1 14N       0.039600
      9 C7          -1.1420     2.0570     3.0910 ca         1 14N      -0.157000
     10 C8          -2.3250     2.6680     3.4920 ca         1 14N      -0.109000
     11 C9          -3.5140     2.4580     2.7870 ca         1 14N      -0.119600
     12 C12         -4.8050     3.1300     3.2330 c          1 14N       0.907200
     13 O2          -5.8500     2.9100     2.5590 o          1 14N      -0.830800
     14 O1          -4.7610     3.8730     4.2550 o          1 14N      -0.830800
     15 C10         -3.4980     1.6220     1.6690 ca         1 14N      -0.109000
     16 C11         -2.3210     1.0020     1.2520 ca         1 14N      -0.157000
     17 H1           1.3970     2.2160     1.8370 h1         1 14N       0.040200
     18 H2           0.5960     2.1100     0.2090 h1         1 14N       0.040200
     19 H3           3.1770     1.5520     0.5070 h1         1 14N       0.042700
     20 H4           2.1450     0.5820    -0.6340 h1         1 14N       0.042700
     21 H6           1.5940    -1.8600     0.1190 h1         1 14N       0.028367
     22 H7           3.2270    -1.4570    -0.5840 h1         1 14N       0.028367
     23 H8           3.1120    -2.4410     0.9430 h1         1 14N       0.028367
     24 H9           2.4380    -1.4740     2.9340 h1         1 14N       0.042700
     25 H10          2.5740     0.3350     3.0990 h1         1 14N       0.042700
     26 H11          0.1640    -1.3910     2.2160 h1         1 14N       0.040200
     27 H12          0.2920    -0.1440     3.5340 h1         1 14N       0.040200
     28 H13         -0.2180     2.2370     3.6590 ha         1 14N       0.111500
     29 H14         -2.3530     3.3310     4.3730 ha         1 14N       0.152000
     30 H16         -4.4420     1.4640     1.1220 ha         1 14N       0.152000
     31 H17         -2.3310     0.3470     0.3690 ha         1 14N       0.111500
@<TRIPOS>BOND
     1     1     2 1   
     2     1     7 1   
     3     1    17 1   
     4     1    18 1   
     5     2     3 1   
     6     2    19 1   
     7     2    20 1   
     8     3     4 1   
     9     3     5 1   
    10     4    21 1   
    11     4    22 1   
    12     4    23 1   
    13     5     6 1   
    14     5    24 1   
    15     5    25 1   
    16     6     7 1   
    17     6    26 1   
    18     6    27 1   
    19     7     8 1   
    20     8     9 ar  
    21     8    16 ar  
    22     9    10 ar  
    23     9    28 1   
    24    10    11 ar  
    25    10    29 1   
    26    11    12 1   
    27    11    15 ar  
    28    12    13 1   
    29    12    14 1   
    30    15    16 ar  
    31    15    30 1   
    32    16    31 1   
@<TRIPOS>SUBSTRUCTURE
     1 14N         1 TEMP              0 ****  ****    0 ROOT
