@<TRIPOS>MOLECULE
molecule
   31    32     1     0     0
SMALL
bcc


@<TRIPOS>ATOM
      1 C3           0.0000     0.0000     0.0000 c3         1 14N       0.167300
      2 C2           1.5310     0.0000     0.0000 c3         1 14N       0.158800
      3 N1           2.0180     0.0000     1.3870 n3         1 14N      -0.731600
      4 C1           3.4840     0.0750     1.4290 c3         1 14N       0.153100
      5 C5           1.5310    -1.1800     2.1130 c3         1 14N       0.158800
      6 C4          -0.0000    -1.1800     2.1130 c3         1 14N       0.167300
      7 N2          -0.4870    -1.1800     0.7260 nh         1 14N      -0.599000
      8 C6          -1.8750    -1.2530     0.6860 ca         1 14N       0.062600
      9 C7          -2.6020    -0.2770     0.0080 ca         1 14N      -0.191500
     10 C8          -3.9700    -0.3450    -0.0340 ca         1 14N      -0.083500
     11 C9          -4.6370    -1.3960     0.6050 ca         1 14N      -0.118600
     12 C12         -6.1070    -1.4720     0.5610 c          1 14N       0.883200
     13 O2          -6.7430    -0.6220    -0.0300 o          1 14N      -0.840800
     14 O1          -6.7480    -2.4850     1.1770 o          1 14N      -0.840800
     15 C10         -3.9040    -2.3740     1.2850 ca         1 14N      -0.083500
     16 C11         -2.5350    -2.3030     1.3190 ca         1 14N      -0.191500
     17 H1          -0.3600     0.8970     0.4880 h1         1 14N       0.048950
     18 H2          -0.3600    -0.0310    -1.0210 h1         1 14N       0.048950
     19 H3           1.8910     0.8860    -0.5080 h1         1 14N       0.033700
     20 H4           1.8910    -0.8860    -0.5080 h1         1 14N       0.033700
     21 H6           3.8140     0.1080     2.4610 h1         1 14N       0.025367
     22 H7           3.9050    -0.7960     0.9430 h1         1 14N       0.025367
     23 H8           3.8150     0.9700     0.9160 h1         1 14N       0.025367
     24 H9           1.8910    -2.0780     1.6250 h1         1 14N       0.033700
     25 H10          1.8910    -1.1490     3.1340 h1         1 14N       0.033700
     26 H11         -0.3600    -0.2940     2.6220 h1         1 14N       0.048950
     27 H12         -0.3600    -2.0670     2.6210 h1         1 14N       0.048950
     28 H13         -2.0850     0.5370    -0.4870 ha         1 14N       0.111000
     29 H14         -4.5350     0.4140    -0.5620 ha         1 14N       0.150000
     30 H16         -4.4160    -3.1900     1.7790 ha         1 14N       0.150000
     31 H17         -1.9660    -3.0600     1.8450 ha         1 14N       0.111000
@<TRIPOS>BOND
     1     2     1 1
     2     2     3 1
     3     1     7 1
     4     5     6 1
     5     5     3 1
     6     6     7 1
     7     3     4 1
     8     7     8 1
     9     8    16 ar
    10     8     9 ar
    11    16    15 ar
    12     9    10 ar
    13    15    11 ar
    14    10    11 ar
    15    11    12 1
    16    12    13 1
    17    12    14 1
    18     1    17 1
    19     1    18 1
    20     2    19 1
    21     2    20 1
    22     4    21 1
    23     4    22 1
    24     4    23 1
    25     5    24 1
    26     5    25 1
    27     6    26 1
    28     6    27 1
    29     9    28 1
    30    10    29 1
    31    15    30 1
    32    16    31 1
@<TRIPOS>SUBSTRUCTURE
     1 14N         1 TEMP              0 ****  ****    0 ROOT
