@<TRIPOS>MOLECULE
14O
   16    17     1     0     0
SMALL
bcc


@<TRIPOS>ATOM
      1 C1          -0.0010    -0.0390    -0.0170 ca         1 14O      -0.120000
      2 C2           1.3820    -0.0250    -0.0390 ca         1 14O      -0.146000
      3 C3           2.1320     0.0250     1.1650 ca         1 14O       0.093900
      4 C4           1.5100     0.0630     2.4180 ca         1 14O      -0.120000
      5 C5           0.1180     0.0500     2.4620 ca         1 14O      -0.073800
      6 C6          -0.6430    -0.0020     1.2310 ca         1 14O      -0.062200
      7 C8          -2.1110     0.0430     2.9560 cc         1 14O      -0.101100
      8 C9          -0.8460     0.0770     3.5380 cd         1 14O      -0.190200
      9 F10          3.4870     0.0370     1.0870 f          1 14O      -0.147900
     10 N7          -2.0000    -0.0050     1.5640 na         1 14O      -0.192400
     11 H1          -0.5780    -0.0790    -0.9500 ha         1 14O       0.137000
     12 H2           1.9230    -0.0530    -0.9960 ha         1 14O       0.146000
     13 H4           2.1060     0.1020     3.3390 ha         1 14O       0.151000
     14 H8          -3.0940     0.0490     3.4320 h4         1 14O       0.166000
     15 H9          -0.6160     0.1170     4.5980 ha         1 14O       0.160000
     16 HN7         -2.7450    -0.0360     0.9220 hn         1 14O       0.299700
@<TRIPOS>BOND
     1     1     2 ar  
     2     1     6 ar  
     3     1    11 1   
     4     2     3 ar  
     5     2    12 1   
     6     3     4 ar  
     7     3     9 1   
     8     4     5 ar  
     9     4    13 1   
    10     5     6 ar  
    11     5     8 1   
    12     6    10 1   
    13     7     8 2   
    14     7    10 1   
    15     7    14 1   
    16     8    15 1   
    17    10    16 1   
@<TRIPOS>SUBSTRUCTURE
     1 14O         1 TEMP              0 ****  ****    0 ROOT
