@<TRIPOS>MOLECULE
molecule
   16    17     1     0     0
SMALL
bcc


@<TRIPOS>ATOM
      1 C1           0.0000     0.0000     0.0000 ca         1 14O      -0.119000
      2 C2           1.3770     0.0000     0.0000 ca         1 14O      -0.145000
      3 C3           2.0860     0.0000     1.1950 ca         1 14O       0.102900
      4 C4           1.4180     0.0010     2.4000 ca         1 14O      -0.121000
      5 C5           0.0210     0.0010     2.4160 ca         1 14O      -0.081800
      6 C6          -0.6940     0.0000     1.2050 ca         1 14O      -0.053200
      7 C8          -2.1870     0.0030     2.8850 cc         1 14O      -0.095100
      8 C9          -0.9850     0.0030     3.4810 cd         1 14O      -0.200200
      9 F10          3.4360     0.0000     1.1770 f          1 14O      -0.144900
     10 N7          -2.0350     0.0050     1.5260 na         1 14O      -0.183400
     11 H1          -0.5420    -0.0000    -0.9380 ha         1 14O       0.131000
     12 H2           1.9130    -0.0010    -0.9410 ha         1 14O       0.144000
     13 H4           1.9730     0.0010     3.3310 ha         1 14O       0.146000
     14 H8          -3.1380     0.0010     3.4050 h4         1 14O       0.166000
     15 H9          -0.7950     0.0020     4.5470 ha         1 14O       0.157000
     16 HN7         -2.7850     0.0050     0.8630 hn         1 14O       0.296700
@<TRIPOS>BOND
     1     2     1 ar  
     2     1     6 ar  
     3     1    11 1   
     4     3     2 ar  
     5     2    12 1   
     6     9     3 1   
     7     3     4 ar  
     8     4     5 ar  
     9     4    13 1   
    10     5     8 1   
    11     5     6 ar  
    12     6    10 1   
    13     8     7 2   
    14     7    10 1   
    15     7    14 1   
    16     8    15 1   
    17    10    16 1   
@<TRIPOS>SUBSTRUCTURE
     1 14O         1 TEMP              0 ****  ****    0 ROOT
