@<TRIPOS>MOLECULE
14O
   16    17     1     0     0
SMALL
bcc


@<TRIPOS>ATOM
      1 C1         -0.0210    0.0010   -0.0270 ca        1 14O     -0.120000
      2 C2          1.3620    0.0000   -0.0160 ca        1 14O     -0.146000
      3 C3          2.0830   -0.0000    1.2070 ca        1 14O      0.093900
      4 C4          1.4320    0.0000    2.4440 ca        1 14O     -0.120000
      5 C5          0.0390    0.0010    2.4550 ca        1 14O     -0.073800
      6 C6         -0.6920    0.0020    1.2060 ca        1 14O     -0.062200
      7 C8         -2.2010    0.0030    2.8960 cc        1 14O     -0.101100
      8 C9         -0.9510    0.0020    3.5080 cd        1 14O     -0.190200
      9 F10         3.4400   -0.0010    1.1610 f         1 14O     -0.147900
     10 N7         -2.0570    0.0030    1.5060 na        1 14O     -0.192400
     11 H1         -0.5760    0.0020   -0.9750 ha        1 14O      0.137000
     12 H2          1.9260   -0.0000   -0.9610 ha        1 14O      0.146000
     13 H4          2.0060   -0.0000    3.3810 ha        1 14O      0.151000
     14 H8         -3.1950    0.0040    3.3480 h4        1 14O      0.166000
     15 H9         -0.7460    0.0020    4.5740 ha        1 14O      0.160000
     16 HN7        -2.7870    0.0030    0.8460 hn        1 14O      0.299700
@<TRIPOS>BOND
     1    1    2 ar  
     2    1    6 ar  
     3    1   11 1   
     4    2    3 ar  
     5    2   12 1   
     6    3    4 ar  
     7    3    9 1   
     8    4    5 ar  
     9    4   13 1   
    10    5    6 ar  
    11    5    8 1   
    12    6   10 1   
    13    7    8 2   
    14    7   10 1   
    15    7   14 1   
    16    8   15 1   
    17   10   16 1   
@<TRIPOS>SUBSTRUCTURE
     1 14O         1 TEMP              0 ****  ****    0 ROOT
