@<TRIPOS>MOLECULE
14Q
   52    55     1     0     0
SMALL
bcc


@<TRIPOS>ATOM
      1 CAY          0.0000     0.0000     0.0000 c3         1 14Q       0.011900
      2 CAH          1.5300     0.0000     0.0000 c3         1 14Q      -0.083700
      3 C4           2.0320     0.0000     1.4210 ca         1 14Q       0.500600
      4 N3           2.2560    -1.1400     2.0530 nb         1 14Q      -0.715000
      5 C2           2.6970    -1.1540     3.3020 ca         1 14Q       0.735900
      6 NAG          2.9170    -2.3710     3.9220 nv         1 14Q      -0.499500
      7 N1           2.9340    -0.0390     3.9750 nb         1 14Q      -0.740000
      8 C6           2.7360     1.1490     3.4150 ca         1 14Q       0.590200
      9 NAI          2.9910     2.3110     4.1190 nv         1 14Q      -0.580500
     10 C5           2.2730     1.2040     2.0850 ca         1 14Q      -0.302600
     11 CAJ          2.0440     2.4600     1.4380 cg         1 14Q      -0.069000
     12 CAK          1.8400     3.4940     0.9200 c1         1 14Q      -0.179100
     13 CAL          2.1360     4.6430     0.0490 c3         1 14Q       0.181000
     14 CAM          1.1350     4.4840    -1.3060 ca         1 14Q      -0.081300
     15 CAR         -0.0920     4.9640    -1.4520 ca         1 14Q      -0.040000
     16 CAN          1.9310     4.6850    -2.2920 ca         1 14Q      -0.118000
     17 CAO          1.4790     4.9830    -3.4710 ca         1 14Q       0.129100
     18 OAZ          2.2810     4.8260    -4.5730 os         1 14Q      -0.417900
     19 CBA          2.8700     3.6110    -5.1180 c3         1 14Q       0.298700
     20 CAP          0.3470     4.8170    -3.7880 ca         1 14Q      -0.103000
     21 CAQ         -0.7780     4.7870    -2.5340 cp         1 14Q      -0.028000
     22 CAS         -1.9340     5.1710    -2.8250 cp         1 14Q       0.009000
     23 CAX         -2.6000     5.4660    -4.0610 ca         1 14Q      -0.082000
     24 CAW         -3.9750     5.9170    -4.3020 ca         1 14Q       0.055100
     25 OBB         -4.7420     6.2510    -5.6360 os         1 14Q      -0.306900
     26 CBC         -5.8980     6.5650    -4.8970 c3         1 14Q       0.431200
     27 OBD         -6.0390     5.9320    -3.7920 os         1 14Q      -0.325900
     28 CAV         -4.6570     6.0510    -3.1210 ca         1 14Q       0.066100
     29 CAU         -4.1480     5.8170    -2.0470 ca         1 14Q      -0.062000
     30 CAT         -3.0520     5.4560    -1.8310 ca         1 14Q      -0.101000
     31 H1          -0.3610     0.2410    -0.9930 hc         1 14Q       0.005700
     32 H2          -0.3610     0.7390     0.7050 hc         1 14Q       0.005700
     33 H3          -0.3610    -0.9800     0.2880 hc         1 14Q       0.005700
     34 H4           1.8910     0.8850    -0.5110 hc         1 14Q       0.029200
     35 H5           1.8910    -0.8850    -0.5110 hc         1 14Q       0.029200
     36 H6           3.0780    -2.4080     4.9090 hn         1 14Q       0.275300
     37 H7           2.9420    -3.2110     3.3790 hn         1 14Q       0.275300
     38 H8           3.8900     2.4580     4.5340 hn         1 14Q       0.277800
     39 H9           2.2790     3.0090     4.2070 hn         1 14Q       0.277800
     40 H10          1.9160     5.5690     0.5670 hc         1 14Q       0.021700
     41 H11          3.1760     4.6230    -0.2530 hc         1 14Q       0.021700
     42 H12         -0.5400     5.3450    -0.5430 ha         1 14Q       0.104000
     43 H13          2.9620     4.9550    -2.0970 ha         1 14Q       0.123000
     44 H14          2.2230     2.7690    -4.9030 h1         1 14Q      -0.012300
     45 H15          3.8400     3.4460    -4.6660 h1         1 14Q      -0.012300
     46 H16          2.9840     3.7140    -6.1900 h1         1 14Q      -0.012300
     47 H17          0.0120     4.9370    -4.8110 ha         1 14Q       0.132000
     48 H18         -2.0080     5.3000    -4.9530 ha         1 14Q       0.092000
     49 H19         -6.7550     6.3330    -5.5180 h2         1 14Q      -0.004300
     50 H20         -5.8600     7.6220    -4.6650 h2         1 14Q      -0.004300
     51 H21         -4.8180     5.8070    -1.1960 ha         1 14Q       0.106000
     52 H22         -2.8690     5.1470    -0.8090 ha         1 14Q       0.090000
@<TRIPOS>BOND
     1     1     2 1   
     2     1    31 1   
     3     1    32 1   
     4     1    33 1   
     5     2     3 1   
     6     2    34 1   
     7     2    35 1   
     8     3     4 ar  
     9     3    10 ar  
    10     4     5 ar  
    11     5     6 1   
    12     5     7 ar  
    13     6    36 1   
    14     6    37 1   
    15     7     8 ar  
    16     8     9 1   
    17     8    10 ar  
    18     9    38 1   
    19     9    39 1   
    20    10    11 1   
    21    11    12 3   
    22    12    13 1   
    23    13    14 1   
    24    13    40 1   
    25    13    41 1   
    26    14    15 ar  
    27    14    16 ar  
    28    15    21 ar  
    29    15    42 1   
    30    16    17 ar  
    31    16    43 1   
    32    17    18 1   
    33    17    20 ar  
    34    18    19 1   
    35    19    44 1   
    36    19    45 1   
    37    19    46 1   
    38    20    21 ar  
    39    20    47 1   
    40    21    22 1   
    41    22    23 ar  
    42    22    30 ar  
    43    23    24 ar  
    44    23    48 1   
    45    24    25 1   
    46    24    28 ar  
    47    25    26 1   
    48    26    27 1   
    49    26    49 1   
    50    26    50 1   
    51    27    28 1   
    52    28    29 ar  
    53    29    30 ar  
    54    29    51 1   
    55    30    52 1   
@<TRIPOS>SUBSTRUCTURE
     1 14Q         1 TEMP              0 ****  ****    0 ROOT
