@<TRIPOS>MOLECULE
14Q
   52    55     1     0     0
SMALL
bcc


@<TRIPOS>ATOM
      1 CAY         -0.3550    -0.7040     0.4280 c3         1 14Q      -0.095100
      2 CAH          1.1210    -0.3930     0.4200 c3         1 14Q      -0.138700
      3 C4           1.6690    -0.1330     1.8000 ca         1 14Q       0.541600
      4 N3           1.4690    -1.0730     2.7430 nb         1 14Q      -0.791000
      5 C2           1.9940    -0.8190     4.0060 ca         1 14Q       0.917900
      6 NAG          1.8770    -1.8290     4.9620 nv         1 14Q      -0.933500
      7 N1           2.6610     0.3320     4.3830 nb         1 14Q      -0.832000
      8 C6           2.8750     1.2610     3.4000 ca         1 14Q       0.744200
      9 NAI          3.6150     2.3850     3.7080 nv         1 14Q      -0.955500
     10 C5           2.3780     1.0690     2.0570 ca         1 14Q      -0.338600
     11 CAJ          2.6000     2.0400     1.0770 cg         1 14Q      -0.079000
     12 CAK          2.8070     2.8820     0.2480 c1         1 14Q      -0.160100
     13 CAL          3.0690     3.8890    -0.7360 c3         1 14Q       0.053000
     14 CAM          1.8950     4.1800    -1.6160 ca         1 14Q      -0.042300
     15 CAR          1.1370     3.1350    -2.1430 ca         1 14Q      -0.143000
     16 CAN          1.5810     5.5060    -1.9310 ca         1 14Q      -0.199000
     17 CAO          0.4990     5.7650    -2.7790 ca         1 14Q       0.126100
     18 OAZ          0.0960     7.0300    -3.1660 os         1 14Q      -0.327900
     19 CBA          0.8310     8.1180    -2.6200 c3         1 14Q       0.113700
     20 CAP         -0.2740     4.7180    -3.3120 ca         1 14Q      -0.146000
     21 CAQ          0.0490     3.3980    -2.9890 cp         1 14Q      -0.004000
     22 CAS         -0.7440     2.2910    -3.5250 cp         1 14Q      -0.039000
     23 CAX         -1.0290     1.1890    -2.6840 ca         1 14Q      -0.103000
     24 CAW         -1.7700     0.1690    -3.2390 ca         1 14Q       0.050100
     25 OBB         -2.1860    -1.0210    -2.6480 os         1 14Q      -0.335900
     26 CBC         -2.9340    -1.7460    -3.6520 c3         1 14Q       0.321200
     27 OBD         -2.9460    -0.9480    -4.8590 os         1 14Q      -0.333900
     28 CAV         -2.2300     0.2110    -4.5810 ca         1 14Q       0.059100
     29 CAU         -1.9590     1.2830    -5.4070 ca         1 14Q      -0.114000
     30 CAT         -1.2020     2.3270    -4.8460 ca         1 14Q      -0.117000
     31 H1          -0.7180    -0.8490    -0.6210 hc         1 14Q       0.045033
     32 H2          -0.5660    -1.6380     1.0030 hc         1 14Q       0.045033
     33 H3          -0.9320     0.1330     0.8890 hc         1 14Q       0.045033
     34 H4           1.6880    -1.2550    -0.0260 hc         1 14Q       0.061700
     35 H5           1.3100     0.5050    -0.2280 hc         1 14Q       0.061700
     36 H6           2.0380    -1.5810     5.9090 hn         1 14Q       0.431800
     37 H7           1.2100    -2.5430     4.7870 hn         1 14Q       0.431800
     38 H8           3.8350     2.5830     4.6530 hn         1 14Q       0.435300
     39 H9           3.5900     3.1360     3.0630 hn         1 14Q       0.435300
     40 H10          3.9270     3.5540    -1.3900 hc         1 14Q       0.066700
     41 H11          3.4000     4.8320    -0.2140 hc         1 14Q       0.066700
     42 H12          1.3970     2.0950    -1.8920 ha         1 14Q       0.144000
     43 H13          2.1800     6.3260    -1.5110 ha         1 14Q       0.137000
     44 H14          1.8990     8.0750    -2.9440 h1         1 14Q       0.044700
     45 H15          0.3240     9.0180    -3.0530 h1         1 14Q       0.044700
     46 H16          0.7600     8.1250    -1.5050 h1         1 14Q       0.044700
     47 H17         -1.1260     4.9540    -3.9660 ha         1 14Q       0.153000
     48 H18         -0.6810     1.1550    -1.6410 ha         1 14Q       0.163000
     49 H19         -3.9860    -1.8670    -3.2950 h2         1 14Q       0.072700
     50 H20         -2.4060    -2.7080    -3.8650 h2         1 14Q       0.072700
     51 H21         -2.3100     1.3220    -6.4450 ha         1 14Q       0.156000
     52 H22         -0.9590     3.1960    -5.4780 ha         1 14Q       0.144000
@<TRIPOS>BOND
     1     1     2 1   
     2     1    31 1   
     3     1    32 1   
     4     1    33 1   
     5     2     3 1   
     6     2    34 1   
     7     2    35 1   
     8     3     4 ar  
     9     3    10 ar  
    10     4     5 ar  
    11     5     6 1   
    12     5     7 ar  
    13     6    36 1   
    14     6    37 1   
    15     7     8 ar  
    16     8     9 1   
    17     8    10 ar  
    18     9    38 1   
    19     9    39 1   
    20    10    11 1   
    21    11    12 3   
    22    12    13 1   
    23    13    14 1   
    24    13    40 1   
    25    13    41 1   
    26    14    15 ar  
    27    14    16 ar  
    28    15    21 ar  
    29    15    42 1   
    30    16    17 ar  
    31    16    43 1   
    32    17    18 1   
    33    17    20 ar  
    34    18    19 1   
    35    19    44 1   
    36    19    45 1   
    37    19    46 1   
    38    20    21 ar  
    39    20    47 1   
    40    21    22 1   
    41    22    23 ar  
    42    22    30 ar  
    43    23    24 ar  
    44    23    48 1   
    45    24    25 1   
    46    24    28 ar  
    47    25    26 1   
    48    26    27 1   
    49    26    49 1   
    50    26    50 1   
    51    27    28 1   
    52    28    29 ar  
    53    29    30 ar  
    54    29    51 1   
    55    30    52 1   
@<TRIPOS>SUBSTRUCTURE
     1 14Q         1 TEMP              0 ****  ****    0 ROOT
