@<TRIPOS>MOLECULE
molecule
   52    55     1     0     0
SMALL
bcc


@<TRIPOS>ATOM
      1 CAY          0.0000     0.0000     0.0000 c3         1 14Q      -0.085100
      2 CAH          1.5300     0.0000     0.0000 c3         1 14Q      -0.134700
      3 C4           2.0320     0.0000     1.4210 ca         1 14Q       0.547600
      4 N3           2.2560    -1.1400     2.0530 nb         1 14Q      -0.820000
      5 C2           2.6970    -1.1540     3.3020 ca         1 14Q       0.974900
      6 NAG          2.9170    -2.3710     3.9220 nv         1 14Q      -0.989500
      7 N1           2.9340    -0.0390     3.9750 nb         1 14Q      -0.846000
      8 C6           2.7360     1.1490     3.4150 ca         1 14Q       0.781200
      9 NAI          2.9910     2.3110     4.1190 nv         1 14Q      -1.041500
     10 C5           2.2730     1.2040     2.0850 ca         1 14Q      -0.326600
     11 CAJ          2.0440     2.4600     1.4380 cg         1 14Q      -0.074000
     12 CAK          1.8400     3.4940     0.9200 c1         1 14Q      -0.159100
     13 CAL          2.1360     4.6430     0.0490 c3         1 14Q       0.063000
     14 CAM          1.1350     4.4840    -1.3060 ca         1 14Q      -0.068300
     15 CAR         -0.0920     4.9640    -1.4520 ca         1 14Q      -0.063000
     16 CAN          1.9310     4.6850    -2.2920 ca         1 14Q      -0.145000
     17 CAO          1.4790     4.9830    -3.4710 ca         1 14Q       0.153100
     18 OAZ          2.2810     4.8260    -4.5730 os         1 14Q      -0.446900
     19 CBA          2.8700     3.6110    -5.1180 c3         1 14Q       0.178700
     20 CAP          0.3470     4.8170    -3.7880 ca         1 14Q      -0.130000
     21 CAQ         -0.7780     4.7870    -2.5340 cp         1 14Q      -0.033000
     22 CAS         -1.9340     5.1710    -2.8250 cp         1 14Q       0.004000
     23 CAX         -2.6000     5.4660    -4.0610 ca         1 14Q      -0.106000
     24 CAW         -3.9750     5.9170    -4.3020 ca         1 14Q       0.049100
     25 OBB         -4.7420     6.2510    -5.6360 os         1 14Q      -0.312900
     26 CBC         -5.8980     6.5650    -4.8970 c3         1 14Q       0.312200
     27 OBD         -6.0390     5.9320    -3.7920 os         1 14Q      -0.336900
     28 CAV         -4.6570     6.0510    -3.1210 ca         1 14Q       0.081100
     29 CAU         -4.1480     5.8170    -2.0470 ca         1 14Q      -0.084000
     30 CAT         -3.0520     5.4560    -1.8310 ca         1 14Q      -0.121000
     31 H1          -0.3610     0.2410    -0.9930 hc         1 14Q       0.041033
     32 H2          -0.3610     0.7390     0.7050 hc         1 14Q       0.041033
     33 H3          -0.3610    -0.9800     0.2880 hc         1 14Q       0.041033
     34 H4           1.8910     0.8850    -0.5110 hc         1 14Q       0.064200
     35 H5           1.8910    -0.8850    -0.5110 hc         1 14Q       0.064200
     36 H6           3.0780    -2.4080     4.9090 hn         1 14Q       0.450800
     37 H7           2.9420    -3.2110     3.3790 hn         1 14Q       0.450800
     38 H8           3.8900     2.4580     4.5340 hn         1 14Q       0.444800
     39 H9           2.2790     3.0090     4.2070 hn         1 14Q       0.444800
     40 H10          1.9160     5.5690     0.5670 hc         1 14Q       0.066700
     41 H11          3.1760     4.6230    -0.2530 hc         1 14Q       0.066700
     42 H12         -0.5400     5.3450    -0.5430 ha         1 14Q       0.129000
     43 H13          2.9620     4.9550    -2.0970 ha         1 14Q       0.143000
     44 H14          2.2230     2.7690    -4.9030 h1         1 14Q       0.035033
     45 H15          3.8400     3.4460    -4.6660 h1         1 14Q       0.035033
     46 H16          2.9840     3.7140    -6.1900 h1         1 14Q       0.035033
     47 H17          0.0120     4.9370    -4.8110 ha         1 14Q       0.157000
     48 H18         -2.0080     5.3000    -4.9530 ha         1 14Q       0.126000
     49 H19         -6.7550     6.3330    -5.5180 h2         1 14Q       0.043200
     50 H20         -5.8600     7.6220    -4.6650 h2         1 14Q       0.043200
     51 H21         -4.8180     5.8070    -1.1960 ha         1 14Q       0.138000
     52 H22         -2.8690     5.1470    -0.8090 ha         1 14Q       0.120000
@<TRIPOS>BOND
     1    13    14 1
     2    13    12 1
     3     9     8 1
     4    16    14 ar
     5    16    17 ar
     6    14    15 ar
     7    12    11 3
     8    18    17 1
     9    18    19 1
    10    17    20 ar
    11    11    10 1
    12     8    10 ar
    13     8     7 ar
    14    15    21 ar
    15    20    21 ar
    16    10     3 ar
    17     7     5 ar
    18    21    22 1
    19    23    22 ar
    20    23    24 ar
    21     3     4 ar
    22     3     2 1
    23    22    30 ar
    24     5     4 ar
    25     5     6 1
    26     2     1 1
    27    24    25 1
    28    24    28 ar
    29    25    26 1
    30    30    29 ar
    31    28    29 ar
    32    28    27 1
    33    26    27 1
    34     1    31 1
    35     1    32 1
    36     1    33 1
    37     2    34 1
    38     2    35 1
    39     6    36 1
    40     6    37 1
    41     9    38 1
    42     9    39 1
    43    13    40 1
    44    13    41 1
    45    15    42 1
    46    16    43 1
    47    19    44 1
    48    19    45 1
    49    19    46 1
    50    20    47 1
    51    23    48 1
    52    26    49 1
    53    26    50 1
    54    29    51 1
    55    30    52 1
@<TRIPOS>SUBSTRUCTURE
     1 14Q         1 TEMP              0 ****  ****    0 ROOT
