@<TRIPOS>MOLECULE
molecule
   66    72     1     0     0
SMALL
bcc


@<TRIPOS>ATOM
      1 C1           0.0000     0.0000     0.0000 c3         1 14R      -0.095100
      2 C2           1.5300     0.0000     0.0000 c3         1 14R      -0.158700
      3 C3           2.0330     0.0000     1.4210 cc         1 14R       0.454800
      4 N1           2.2050     1.0660     2.1550 nd         1 14R      -0.700000
      5 C4           2.6620     0.7110     3.3650 cd         1 14R       0.439100
      6 C5           3.0300     1.4420     4.5760 cd         1 14R      -0.272800
      7 C6           3.4660     0.7510     5.6470 cc         1 14R      -0.024400
      8 N2           3.5680    -0.6080     5.6210 n          1 14R      -0.322000
      9 C7           3.2400    -1.3270     4.5310 c          1 14R       0.748100
     10 O1           3.3470    -2.5420     4.5500 o          1 14R      -0.690500
     11 C8           2.7780    -0.6840     3.3710 cc         1 14R      -0.300200
     12 N3           2.3650    -1.1040     2.1240 na         1 14R      -0.131900
     13 C9           2.3030    -2.4880     1.6500 c3         1 14R       0.105300
     14 C10          1.6380    -2.5480     0.2580 c3         1 14R      -0.142400
     15 C11          2.8510    -2.4640    -0.6920 c3         1 14R      -0.050100
     16 C12          4.0140    -3.0230     0.0990 ca         1 14R      -0.100300
     17 C13          3.6990    -3.0380     1.4480 ca         1 14R      -0.098300
     18 C14          4.6190    -3.5110     2.3710 ca         1 14R      -0.099000
     19 C15          5.8510    -3.9690     1.9550 ca         1 14R      -0.043000
     20 C16          6.1730    -3.9560     0.5990 cp         1 14R      -0.063000
     21 C17          5.2460    -3.4820    -0.3280 ca         1 14R      -0.099000
     22 C18          7.4950    -4.4490     0.1440 cp         1 14R       0.029000
     23 C19          7.5800    -5.3760    -0.8920 ca         1 14R      -0.123000
     24 C20          8.8130    -5.8320    -1.3110 ca         1 14R      -0.104000
     25 C21          9.9720    -5.3730    -0.7080 ca         1 14R      -0.133000
     26 C22          9.9090    -4.4550     0.3190 ca         1 14R      -0.110000
     27 C23          8.6720    -3.9790     0.7520 ca         1 14R      -0.143500
     28 C24          8.5980    -2.9950     1.8520 cc         1 14R       0.476000
     29 N4           9.6460    -2.4620     2.5300 na         1 14R      -0.191400
     30 N5           9.0700    -1.5860     3.4680 nc         1 14R      -0.214800
     31 N6           7.7940    -1.6480     3.3040 nd         1 14R      -0.007000
     32 N7           7.5030    -2.4650     2.3560 nd         1 14R      -0.400000
     33 C25          4.0480    -1.3070     6.8140 c3         1 14R       0.146300
     34 C26          2.8770    -1.6570     7.6980 ca         1 14R      -0.119300
     35 C27          2.4520    -0.7660     8.6660 ca         1 14R      -0.106500
     36 C28          1.3780    -1.0860     9.4750 ca         1 14R      -0.133000
     37 C29          0.7290    -2.2970     9.3160 ca         1 14R      -0.120000
     38 C30          1.1540    -3.1870     8.3470 ca         1 14R      -0.133000
     39 C31          2.2250    -2.8650     7.5350 ca         1 14R      -0.106500
     40 H5          -0.3610    -0.4640     0.9100 hc         1 14R       0.043700
     41 H3          -0.3610    -0.5560    -0.8570 hc         1 14R       0.043700
     42 H4          -0.3610     1.0200    -0.0530 hc         1 14R       0.043700
     43 H7           1.8910     0.8850    -0.5110 hc         1 14R       0.087200
     44 H6           1.8910    -0.8840    -0.5110 hc         1 14R       0.087200
     45 H8           2.9540     2.5220     4.6110 ha         1 14R       0.156000
     46 H9           3.7410     1.2870     6.5470 h4         1 14R       0.153000
     47 H1           1.7560    -3.1070     2.3510 h1         1 14R       0.090700
     48 H11          0.9940    -1.6890     0.1160 hc         1 14R       0.084700
     49 H10          1.1300    -3.4960     0.1300 hc         1 14R       0.084700
     50 H13          2.6730    -3.0840    -1.5630 hc         1 14R       0.064200
     51 H12          3.0450    -1.4280    -0.9420 hc         1 14R       0.064200
     52 H14          4.3690    -3.5210     3.4250 ha         1 14R       0.185000
     53 H15          6.5680    -4.3360     2.6800 ha         1 14R       0.136000
     54 H16          5.4920    -3.4710    -1.3830 ha         1 14R       0.126000
     55 H17          6.6770    -5.7400    -1.3680 ha         1 14R       0.146000
     56 H18          8.8740    -6.5530    -2.1170 ha         1 14R       0.137000
     57 H19         10.9350    -5.7400    -1.0440 ha         1 14R       0.137000
     58 H20         10.8200    -4.0980     0.7840 ha         1 14R       0.123000
     59 H2          10.6190    -2.6510     2.3910 hn         1 14R       0.336700
     60 H22          4.5610    -2.2150     6.5190 h1         1 14R       0.074200
     61 H21          4.7310    -0.6660     7.3580 h1         1 14R       0.074200
     62 H23          2.9600     0.1820     8.7900 ha         1 14R       0.138500
     63 H24          1.0450    -0.3890    10.2340 ha         1 14R       0.130000
     64 H25         -0.1110    -2.5480     9.9520 ha         1 14R       0.128000
     65 H26          0.6440    -4.1350     8.2210 ha         1 14R       0.130000
     66 H27          2.5580    -3.5620     6.7760 ha         1 14R       0.138500
@<TRIPOS>BOND
     1    25    26 ar
     2    25    24 ar
     3    26    27 ar
     4    24    23 ar
     5    27    28 1
     6    27    22 ar
     7    29    28 1
     8    29    30 1
     9    23    22 ar
    10    28    32 2
    11    30    31 2
    12    22    20 1
    13    32    31 1
    14    20    21 ar
    15    20    19 ar
    16    21    16 ar
    17    19    18 ar
    18    16    17 ar
    19    16    15 1
    20    18    17 ar
    21     1     2 1
    22    17    13 1
    23    15    14 1
    24     2     3 1
    25    14    13 1
    26    13    12 1
    27     3    12 1
    28     3     4 2
    29    12    11 1
    30     4     5 1
    31    11     5 2
    32    11     9 1
    33     5     6 1
    34     9    10 2
    35     9     8 1
    36     6     7 2
    37     8     7 1
    38     8    33 1
    39    33    34 1
    40    34    39 ar
    41    34    35 ar
    42    39    38 ar
    43    35    36 ar
    44    38    37 ar
    45    36    37 ar
    46     1    40 1
    47     1    41 1
    48     1    42 1
    49     2    43 1
    50     2    44 1
    51     6    45 1
    52     7    46 1
    53    13    47 1
    54    14    48 1
    55    14    49 1
    56    15    50 1
    57    15    51 1
    58    18    52 1
    59    19    53 1
    60    21    54 1
    61    23    55 1
    62    24    56 1
    63    25    57 1
    64    26    58 1
    65    29    59 1
    66    33    60 1
    67    33    61 1
    68    35    62 1
    69    36    63 1
    70    37    64 1
    71    38    65 1
    72    39    66 1
@<TRIPOS>SUBSTRUCTURE
     1 14R         1 TEMP              0 ****  ****    0 ROOT
