@<TRIPOS>MOLECULE
14R
   66    72     1     0     0
SMALL
bcc


@<TRIPOS>ATOM
      1 C1          -0.6320    -0.0150     0.5220 c3         1 14R      -0.090100
      2 C2           0.8750     0.0300     0.5200 c3         1 14R      -0.112700
      3 C3           1.4430    -0.0670     1.9000 cc         1 14R       0.458800
      4 N1           0.9760    -0.9060     2.8690 nd         1 14R      -0.667000
      5 C4           1.7950    -0.6960     3.9730 cd         1 14R       0.436100
      6 C5           1.7980    -1.2900     5.2720 cd         1 14R      -0.277800
      7 C6           2.7520    -0.8740     6.1600 cc         1 14R      -0.016400
      8 N2           3.7020     0.1030     5.8860 n          1 14R      -0.340000
      9 C7           3.7980     0.7130     4.6170 c          1 14R       0.733100
     10 O1           4.6970     1.5520     4.3830 o          1 14R      -0.675500
     11 C8           2.7820     0.2930     3.6670 cc         1 14R      -0.297200
     12 N3           2.5510     0.6900     2.3440 na         1 14R      -0.165900
     13 C9           3.3250     1.6660     1.6200 c3         1 14R       0.081300
     14 C10          3.9570     1.1420     0.2940 c3         1 14R      -0.092400
     15 C11          3.6780     2.1860    -0.7910 c3         1 14R      -0.041100
     16 C12          2.8060     3.2120    -0.1500 ca         1 14R      -0.077300
     17 C13          2.5660     2.9080     1.2070 ca         1 14R      -0.103300
     18 C14          1.7800     3.7380     1.9900 ca         1 14R      -0.097000
     19 C15          1.2320     4.8890     1.4110 ca         1 14R      -0.139000
     20 C16          1.4720     5.2010     0.0680 cp         1 14R      -0.064000
     21 C17          2.2680     4.3530    -0.7240 ca         1 14R      -0.104000
     22 C18          0.9340     6.4400    -0.5040 cp         1 14R      -0.022000
     23 C19          1.5710     7.6480    -0.1880 ca         1 14R      -0.120000
     24 C20          1.1220     8.8520    -0.7260 ca         1 14R      -0.109000
     25 C21          0.0280     8.8640    -1.5910 ca         1 14R      -0.131000
     26 C22         -0.6210     7.6740    -1.9100 ca         1 14R      -0.082000
     27 C23         -0.1780     6.4580    -1.3660 ca         1 14R      -0.128500
     28 C24         -0.9030     5.2470    -1.7210 cc         1 14R       0.447000
     29 N4          -1.0500     4.0960    -0.9180 na         1 14R      -0.170400
     30 N5          -1.8030     3.2150    -1.5880 nc         1 14R      -0.200800
     31 N6          -2.1190     3.7490    -2.7140 nd         1 14R      -0.052000
     32 N7          -1.6150     4.9680    -2.8640 nd         1 14R      -0.374000
     33 C25          4.6770     0.4390     6.9100 c3         1 14R       0.131300
     34 C26          5.8450    -0.5000     6.9880 ca         1 14R      -0.120300
     35 C27          5.9700    -1.3900     8.0580 ca         1 14R      -0.111500
     36 C28          7.0790    -2.2320     8.1390 ca         1 14R      -0.132500
     37 C29          8.0620    -2.1910     7.1510 ca         1 14R      -0.120000
     38 C30          7.9370    -1.3060     6.0790 ca         1 14R      -0.132500
     39 C31          6.8320    -0.4610     5.9970 ca         1 14R      -0.111500
     40 H5          -1.0530     0.7860     1.1750 hc         1 14R       0.048367
     41 H3          -1.0010    -1.0010     0.8970 hc         1 14R       0.048367
     42 H4          -1.0120     0.1360    -0.5180 hc         1 14R       0.048367
     43 H7           1.2820    -0.8300    -0.0790 hc         1 14R       0.061700
     44 H6           1.2280     0.9800     0.0310 hc         1 14R       0.061700
     45 H8           1.0590    -2.0550     5.5360 ha         1 14R       0.166000
     46 H9           2.8110    -1.3070     7.1760 h4         1 14R       0.154000
     47 H1           4.1660     1.9910     2.3140 h1         1 14R       0.128700
     48 H11          5.0560     1.0080     0.4440 hc         1 14R       0.063200
     49 H10          3.5290     0.1520    -0.0020 hc         1 14R       0.063200
     50 H13          3.1670     1.7230    -1.6730 hc         1 14R       0.064700
     51 H12          4.6310     2.6500    -1.1530 hc         1 14R       0.064700
     52 H14          1.5940     3.5070     3.0490 ha         1 14R       0.153000
     53 H15          0.6180     5.5650     2.0270 ha         1 14R       0.144000
     54 H16          2.4610     4.6000    -1.7780 ha         1 14R       0.151000
     55 H17          2.4380     7.6370     0.4900 ha         1 14R       0.146000
     56 H18          1.6340     9.7920    -0.4690 ha         1 14R       0.141000
     57 H19         -0.3250     9.8120    -2.0230 ha         1 14R       0.143000
     58 H20         -1.4850     7.6870    -2.5940 ha         1 14R       0.161000
     59 H2          -0.6480     3.9090    -0.0260 hn         1 14R       0.343700
     60 H22          4.1430     0.4640     7.9040 h1         1 14R       0.076200
     61 H21          5.0640     1.4780     6.6890 h1         1 14R       0.076200
     62 H23          5.1960    -1.4260     8.8400 ha         1 14R       0.141000
     63 H24          7.1760    -2.9300     8.9840 ha         1 14R       0.134000
     64 H25          8.9350    -2.8570     7.2150 ha         1 14R       0.133000
     65 H26          8.7110    -1.2730     5.2990 ha         1 14R       0.134000
     66 H27          6.7230     0.2440     5.1550 ha         1 14R       0.141000
@<TRIPOS>BOND
     1     1     2 1   
     2     1    40 1   
     3     1    41 1   
     4     1    42 1   
     5     2     3 1   
     6     2    43 1   
     7     2    44 1   
     8     3     4 2   
     9     3    12 1   
    10     4     5 1   
    11     5     6 1   
    12     5    11 2   
    13     6     7 2   
    14     6    45 1   
    15     7     8 1   
    16     7    46 1   
    17     8     9 1   
    18     8    33 1   
    19     9    10 2   
    20     9    11 1   
    21    11    12 1   
    22    12    13 1   
    23    13    14 1   
    24    13    17 1   
    25    13    47 1   
    26    14    15 1   
    27    14    48 1   
    28    14    49 1   
    29    15    16 1   
    30    15    50 1   
    31    15    51 1   
    32    16    17 ar  
    33    16    21 ar  
    34    17    18 ar  
    35    18    19 ar  
    36    18    52 1   
    37    19    20 ar  
    38    19    53 1   
    39    20    21 ar  
    40    20    22 1   
    41    21    54 1   
    42    22    23 ar  
    43    22    27 ar  
    44    23    24 ar  
    45    23    55 1   
    46    24    25 ar  
    47    24    56 1   
    48    25    26 ar  
    49    25    57 1   
    50    26    27 ar  
    51    26    58 1   
    52    27    28 1   
    53    28    29 1   
    54    28    32 2   
    55    29    30 1   
    56    29    59 1   
    57    30    31 2   
    58    31    32 1   
    59    33    34 1   
    60    33    60 1   
    61    33    61 1   
    62    34    35 ar  
    63    34    39 ar  
    64    35    36 ar  
    65    35    62 1   
    66    36    37 ar  
    67    36    63 1   
    68    37    38 ar  
    69    37    64 1   
    70    38    39 ar  
    71    38    65 1   
    72    39    66 1   
@<TRIPOS>SUBSTRUCTURE
     1 14R         1 TEMP              0 ****  ****    0 ROOT
