@<TRIPOS>MOLECULE
14S
   68    71     1     0     0
SMALL
bcc


@<TRIPOS>ATOM
      1 O33          0.0000     0.0000     0.0000 o          1 14S      -0.669500
      2 C28          1.2140     0.0000     0.0000 c          1 14S       0.633500
      3 C32          2.0800     0.0000     1.2400 c3         1 14S      -0.112400
      4 C34          3.4770     0.4190     0.7260 c3         1 14S      -0.032400
      5 C29          3.4090    -0.0110    -0.7560 c3         1 14S       0.053000
      6 N24          1.9830    -0.0060    -1.1010 n          1 14S      -0.173800
      7 C21          1.4650    -0.0050    -2.4720 c3         1 14S       0.082000
      8 C19          1.2930     1.4380    -2.9520 c3         1 14S      -0.069400
      9 C15          0.7520     1.4390    -4.3830 c3         1 14S       0.055000
     10 N10          0.5890     2.8210    -4.8420 ns         1 14S      -0.196900
     11 C6           0.1220     3.0680    -6.0810 c          1 14S       0.647700
     12 O11         -0.1640     2.1440    -6.8190 o          1 14S      -0.695100
     13 C2          -0.0420     4.4560    -6.5420 ca         1 14S      -0.573200
     14 C1          -0.4240     4.7380    -7.8730 ca         1 14S       0.646200
     15 N4          -0.6500     3.7160    -8.7700 nu         1 14S      -0.495900
     16 C8          -0.9280     4.0230   -10.1750 c3         1 14S       0.128500
     17 C14         -2.4410     4.2440   -10.3780 c3         1 14S      -0.038900
     18 C18         -2.7340     3.6190   -11.7650 c3         1 14S      -0.023900
     19 C17         -1.8230     2.3670   -11.7740 c3         1 14S      -0.023900
     20 C13         -0.5350     2.8300   -11.0640 c3         1 14S      -0.038900
     21 C5           0.1680     5.5320    -5.6740 ca         1 14S       0.556200
     22 N9           0.0100     6.7620    -6.1250 nb         1 14S      -0.765000
     23 C7          -0.3430     6.9910    -7.3840 ca         1 14S       0.778900
     24 N3          -0.5600     6.0060    -8.2430 nb         1 14S      -0.795000
     25 N12         -0.4970     8.2940    -7.8090 nu         1 14S      -0.463900
     26 C16         -0.2700     9.4000    -6.8750 c3         1 14S       0.235100
     27 C20         -0.5020    10.7100    -7.5840 ca         1 14S      -0.165300
     28 C23          0.5730    11.4450    -8.0470 ca         1 14S      -0.044000
     29 C27          0.3610    12.6480    -8.6960 ca         1 14S      -0.148000
     30 C30         -0.9260    13.1170    -8.8850 ca         1 14S      -0.047000
     31 C25         -2.0040    12.3860    -8.4220 ca         1 14S      -0.213000
     32 C22         -1.7940    11.1770    -7.7760 ca         1 14S       0.168100
     33 O26         -2.8530    10.4540    -7.3260 os         1 14S      -0.303900
     34 C31         -4.1550    10.9950    -7.5580 c3         1 14S       0.243700
     35 H1           2.1190    -0.9920     1.6730 hc         1 14S       0.043200
     36 H2           1.7100     0.7210     1.9590 hc         1 14S       0.043200
     37 H3           3.6130     1.4900     0.8100 hc         1 14S       0.026700
     38 H4           4.2570    -0.1210     1.2480 hc         1 14S       0.026700
     39 H5           3.9460     0.6990    -1.3750 h1         1 14S       0.016200
     40 H6           3.8190    -1.0060    -0.8750 h1         1 14S       0.016200
     41 H7           0.5070    -0.5100    -2.4960 h1         1 14S       0.031700
     42 H8           2.1610    -0.5210    -3.1210 h1         1 14S       0.031700
     43 H9           0.5970     1.9540    -2.3020 hc         1 14S       0.025200
     44 H10          2.2520     1.9430    -2.9280 hc         1 14S       0.025200
     45 H11         -0.2060     0.9350    -4.4070 h1         1 14S       0.027700
     46 H12          1.4490     0.9220    -5.0330 h1         1 14S       0.027700
     47 H13          0.8480     3.5810    -4.2440 hn         1 14S       0.180500
     48 H14         -0.6430     2.7660    -8.4570 hn         1 14S       0.362800
     49 H15         -0.3820     4.9070   -10.4820 h1         1 14S       0.050700
     50 H16         -2.6710     5.3030   -10.3850 hc         1 14S       0.023200
     51 H17         -3.0050     3.7320    -9.6070 hc         1 14S       0.023200
     52 H18         -3.7760     3.3350   -11.8440 hc         1 14S       0.014950
     53 H19         -2.4530     4.3020   -12.5580 hc         1 14S       0.014950
     54 H20         -2.2880     1.5580   -11.2240 hc         1 14S       0.014950
     55 H21         -1.6050     2.0670   -12.7920 hc         1 14S       0.014950
     56 H22         -0.1420     2.0270   -10.4520 hc         1 14S       0.023200
     57 H23          0.2000     3.1410   -11.7960 hc         1 14S       0.023200
     58 H24          0.4570     5.3580    -4.6440 h4         1 14S      -0.031900
     59 H25         -0.7410     8.4850    -8.7610 hn         1 14S       0.302800
     60 H26         -0.9550     9.3150    -6.0410 h1         1 14S       0.031200
     61 H27          0.7500     9.3620    -6.5120 h1         1 14S       0.031200
     62 H28          1.5820    11.0790    -7.9000 ha         1 14S       0.108000
     63 H29          1.2040    13.2220    -9.0590 ha         1 14S       0.107000
     64 H30         -1.0890    14.0600    -9.3920 ha         1 14S       0.101000
     65 H31         -3.0120    12.7540    -8.5710 ha         1 14S       0.123000
     66 H32         -4.9020    10.3240    -7.1510 h1         1 14S      -0.000967
     67 H33         -4.3140    11.1080    -8.6240 h1         1 14S      -0.000967
     68 H34         -4.2360    11.9610    -7.0760 h1         1 14S      -0.000967
@<TRIPOS>BOND
     1     1     2 2   
     2     2     3 1   
     3     2     6 1   
     4     3     4 1   
     5     3    35 1   
     6     3    36 1   
     7     4     5 1   
     8     4    37 1   
     9     4    38 1   
    10     5     6 1   
    11     5    39 1   
    12     5    40 1   
    13     6     7 1   
    14     7     8 1   
    15     7    41 1   
    16     7    42 1   
    17     8     9 1   
    18     8    43 1   
    19     8    44 1   
    20     9    10 1   
    21     9    45 1   
    22     9    46 1   
    23    10    11 1   
    24    10    47 1   
    25    11    12 2   
    26    11    13 1   
    27    13    14 ar  
    28    13    21 ar  
    29    14    15 1   
    30    14    24 ar  
    31    15    16 1   
    32    15    48 1   
    33    16    17 1   
    34    16    20 1   
    35    16    49 1   
    36    17    18 1   
    37    17    50 1   
    38    17    51 1   
    39    18    19 1   
    40    18    52 1   
    41    18    53 1   
    42    19    20 1   
    43    19    54 1   
    44    19    55 1   
    45    20    56 1   
    46    20    57 1   
    47    21    22 ar  
    48    21    58 1   
    49    22    23 ar  
    50    23    24 ar  
    51    23    25 1   
    52    25    26 1   
    53    25    59 1   
    54    26    27 1   
    55    26    60 1   
    56    26    61 1   
    57    27    28 ar  
    58    27    32 ar  
    59    28    29 ar  
    60    28    62 1   
    61    29    30 ar  
    62    29    63 1   
    63    30    31 ar  
    64    30    64 1   
    65    31    32 ar  
    66    31    65 1   
    67    32    33 1   
    68    33    34 1   
    69    34    66 1   
    70    34    67 1   
    71    34    68 1   
@<TRIPOS>SUBSTRUCTURE
     1 14S         1 TEMP              0 ****  ****    0 ROOT
