@<TRIPOS>MOLECULE
molecule
   68    71     1     0     0
SMALL
bcc


@<TRIPOS>ATOM
      1 O33          0.0000     0.0000     0.0000 o          1 14S      -0.629500
      2 C28          1.2140     0.0000     0.0000 c          1 14S       0.701500
      3 C32          2.0800     0.0000     1.2400 c3         1 14S      -0.169400
      4 C34          3.4770     0.4190     0.7260 c3         1 14S      -0.098400
      5 C29          3.4090    -0.0110    -0.7560 c3         1 14S       0.096000
      6 N24          1.9830    -0.0060    -1.1010 n          1 14S      -0.499800
      7 C21          1.4650    -0.0050    -2.4720 c3         1 14S       0.128000
      8 C19          1.2930     1.4380    -2.9520 c3         1 14S      -0.126400
      9 C15          0.7520     1.4390    -4.3830 c3         1 14S       0.115000
     10 N10          0.5890     2.8210    -4.8420 ns         1 14S      -0.582900
     11 C6           0.1220     3.0680    -6.0810 c          1 14S       0.710700
     12 O11         -0.1640     2.1440    -6.8190 o          1 14S      -0.652100
     13 C2          -0.0420     4.4560    -6.5420 ca         1 14S      -0.544200
     14 C1          -0.4240     4.7380    -7.8730 ca         1 14S       0.811200
     15 N4          -0.6500     3.7160    -8.7700 nu         1 14S      -0.883900
     16 C8          -0.9280     4.0230   -10.1750 c3         1 14S       0.233500
     17 C14         -2.4410     4.2440   -10.3780 c3         1 14S      -0.096900
     18 C18         -2.7340     3.6190   -11.7650 c3         1 14S      -0.085900
     19 C17         -1.8230     2.3670   -11.7740 c3         1 14S      -0.085900
     20 C13         -0.5350     2.8300   -11.0640 c3         1 14S      -0.096900
     21 C5           0.1680     5.5320    -5.6740 ca         1 14S       0.554200
     22 N9           0.0100     6.7620    -6.1250 nb         1 14S      -0.849000
     23 C7          -0.3430     6.9910    -7.3840 ca         1 14S       0.996900
     24 N3          -0.5600     6.0060    -8.2430 nb         1 14S      -0.883000
     25 N12         -0.4970     8.2940    -7.8090 nu         1 14S      -0.881900
     26 C16         -0.2700     9.4000    -6.8750 c3         1 14S       0.305100
     27 C20         -0.5020    10.7100    -7.5840 ca         1 14S      -0.152300
     28 C23          0.5730    11.4450    -8.0470 ca         1 14S      -0.075000
     29 C27          0.3610    12.6480    -8.6960 ca         1 14S      -0.171000
     30 C30         -0.9260    13.1170    -8.8850 ca         1 14S      -0.080000
     31 C25         -2.0040    12.3860    -8.4220 ca         1 14S      -0.225000
     32 C22         -1.7940    11.1770    -7.7760 ca         1 14S       0.157100
     33 O26         -2.8530    10.4540    -7.3260 os         1 14S      -0.321900
     34 C31         -4.1550    10.9950    -7.5580 c3         1 14S       0.127700
     35 H1           2.1190    -0.9920     1.6730 hc         1 14S       0.077700
     36 H2           1.7100     0.7210     1.9590 hc         1 14S       0.077700
     37 H3           3.6130     1.4900     0.8100 hc         1 14S       0.058700
     38 H4           4.2570    -0.1210     1.2480 hc         1 14S       0.058700
     39 H5           3.9460     0.6990    -1.3750 h1         1 14S       0.046200
     40 H6           3.8190    -1.0060    -0.8750 h1         1 14S       0.046200
     41 H7           0.5070    -0.5100    -2.4960 h1         1 14S       0.061700
     42 H8           2.1610    -0.5210    -3.1210 h1         1 14S       0.061700
     43 H9           0.5970     1.9540    -2.3020 hc         1 14S       0.054700
     44 H10          2.2520     1.9430    -2.9280 hc         1 14S       0.054700
     45 H11         -0.2060     0.9350    -4.4070 h1         1 14S       0.053700
     46 H12          1.4490     0.9220    -5.0330 h1         1 14S       0.053700
     47 H13          0.8480     3.5810    -4.2440 hn         1 14S       0.314500
     48 H14         -0.6430     2.7660    -8.4570 hn         1 14S       0.493800
     49 H15         -0.3820     4.9070   -10.4820 h1         1 14S       0.075700
     50 H16         -2.6710     5.3030   -10.3850 hc         1 14S       0.053450
     51 H17         -3.0050     3.7320    -9.6070 hc         1 14S       0.053450
     52 H18         -3.7760     3.3350   -11.8440 hc         1 14S       0.044700
     53 H19         -2.4530     4.3020   -12.5580 hc         1 14S       0.044700
     54 H20         -2.2880     1.5580   -11.2240 hc         1 14S       0.044700
     55 H21         -1.6050     2.0670   -12.7920 hc         1 14S       0.044700
     56 H22         -0.1420     2.0270   -10.4520 hc         1 14S       0.053450
     57 H23          0.2000     3.1410   -11.7960 hc         1 14S       0.053450
     58 H24          0.4570     5.3580    -4.6440 h4         1 14S       0.015100
     59 H25         -0.7410     8.4850    -8.7610 hn         1 14S       0.460800
     60 H26         -0.9550     9.3150    -6.0410 h1         1 14S       0.061200
     61 H27          0.7500     9.3620    -6.5120 h1         1 14S       0.061200
     62 H28          1.5820    11.0790    -7.9000 ha         1 14S       0.139000
     63 H29          1.2040    13.2220    -9.0590 ha         1 14S       0.133000
     64 H30         -1.0890    14.0600    -9.3920 ha         1 14S       0.132000
     65 H31         -3.0120    12.7540    -8.5710 ha         1 14S       0.138000
     66 H32         -4.9020    10.3240    -7.1510 h1         1 14S       0.043033
     67 H33         -4.3140    11.1080    -8.6240 h1         1 14S       0.043033
     68 H34         -4.2360    11.9610    -7.0760 h1         1 14S       0.043033
@<TRIPOS>BOND
     1    26    25 1   
     2    26    27 1   
     3    25    23 1   
     4    27    28 ar  
     5    27    32 ar  
     6    23    22 ar  
     7    23    24 ar  
     8    22    21 ar  
     9    33    32 1   
    10    33    34 1   
    11    28    29 ar  
    12    32    31 ar  
    13    24    14 ar  
    14    21    13 ar  
    15    29    30 ar  
    16    31    30 ar  
    17    14    13 ar  
    18    14    15 1   
    19    13    11 1   
    20    16    15 1   
    21    16    20 1   
    22    16    17 1   
    23    11    12 2   
    24    11    10 1   
    25    20    19 1   
    26    10     9 1   
    27    17    18 1   
    28     9     8 1   
    29    19    18 1   
    30     8     7 1   
    31     7     6 1   
    32     6     2 1   
    33     6     5 1   
    34     1     2 2   
    35     2     3 1   
    36     5     4 1   
    37     3     4 1   
    38     3    35 1   
    39     3    36 1   
    40     4    37 1   
    41     4    38 1   
    42     5    39 1   
    43     5    40 1   
    44     7    41 1   
    45     7    42 1   
    46     8    43 1   
    47     8    44 1   
    48     9    45 1   
    49     9    46 1   
    50    10    47 1   
    51    15    48 1   
    52    16    49 1   
    53    17    50 1   
    54    17    51 1   
    55    18    52 1   
    56    18    53 1   
    57    19    54 1   
    58    19    55 1   
    59    20    56 1   
    60    20    57 1   
    61    21    58 1   
    62    25    59 1   
    63    26    60 1   
    64    26    61 1   
    65    28    62 1   
    66    29    63 1   
    67    30    64 1   
    68    31    65 1   
    69    34    66 1   
    70    34    67 1   
    71    34    68 1   
@<TRIPOS>SUBSTRUCTURE
     1 14S         1 TEMP              0 ****  ****    0 ROOT
