@<TRIPOS>MOLECULE
14S
   69    72     1     0     0
SMALL
bcc


@<TRIPOS>ATOM
      1 O33         -0.0180    -1.2570    -0.1880 o          1 14S      -0.644500
      2 C28          0.9020    -0.5130     0.1880 c          1 14S       0.703500
      3 C32          1.3030    -0.2110     1.6240 c3         1 14S      -0.153400
      4 C34          2.4720     0.7660     1.5280 c3         1 14S      -0.094400
      5 C29          2.7150     0.9950     0.0190 c3         1 14S       0.092000
      6 N24          1.7560     0.1650    -0.6870 n          1 14S      -0.499800
      7 C21          1.5400     0.2790    -2.0940 c3         1 14S       0.131000
      8 C19          1.5430    -1.0770    -2.8190 c3         1 14S      -0.132400
      9 C15          0.8760    -0.9150    -4.1780 c3         1 14S       0.117800
     10 N10          0.5730    -2.2240    -4.8300 ny         1 14S      -0.673800
     11 C6           1.7690    -2.8800    -5.5310 c          1 14S       0.596700
     12 O11          2.8010    -2.2060    -5.4750 o          1 14S      -0.524100
     13 C2           1.5190    -4.1390    -6.1410 ca         1 14S      -0.595200
     14 C1           2.5570    -4.8500    -6.8960 ca         1 14S       0.819200
     15 N4           3.8010    -4.3210    -7.0540 nu         1 14S      -0.815900
     16 C8           4.8890    -5.0010    -7.7450 c3         1 14S       0.218500
     17 C14          5.5000    -6.1730    -6.9440 c3         1 14S      -0.095900
     18 C18          6.8960    -5.7590    -6.5040 c3         1 14S      -0.085400
     19 C17          7.1480    -4.3480    -7.0170 c3         1 14S      -0.085400
     20 C13          6.0660    -4.0430    -8.0380 c3         1 14S      -0.095900
     21 C5           0.2550    -4.8130    -6.0710 ca         1 14S       0.529200
     22 N9          -0.0290    -5.9610    -6.6320 nb         1 14S      -0.745000
     23 C7           1.0230    -6.5830    -7.3790 ca         1 14S       0.968900
     24 N3           2.2880    -6.0610    -7.4890 nb         1 14S      -0.825000
     25 N12          0.6910    -7.7370    -8.0400 nu         1 14S      -0.793900
     26 C16          1.6320    -8.5980    -8.7230 c3         1 14S       0.257100
     27 C20          2.0980    -9.7720    -7.9140 ca         1 14S      -0.160300
     28 C23          1.1770   -10.6260    -7.3020 ca         1 14S      -0.094000
     29 C27          1.6020   -11.7380    -6.5780 ca         1 14S      -0.155000
     30 C30          2.9640   -12.0130    -6.4630 ca         1 14S      -0.076000
     31 C25          3.9040   -11.1850    -7.0720 ca         1 14S      -0.198000
     32 C22          3.4730   -10.0650    -7.7970 ca         1 14S       0.146100
     33 O26          4.3360    -9.1860    -8.4240 os         1 14S      -0.337900
     34 C31          5.6960    -9.6010    -8.5210 c3         1 14S       0.110700
     35 H1           1.5900    -1.1620     2.1370 hc         1 14S       0.091700
     36 H2           0.4280     0.2300     2.1640 hc         1 14S       0.091700
     37 H3           3.3890     0.3450     2.0070 hc         1 14S       0.068200
     38 H4           2.2310     1.7340     2.0310 hc         1 14S       0.068200
     39 H5           2.5720     2.0770    -0.2500 h1         1 14S       0.051200
     40 H6           3.7580     0.6940    -0.2700 h1         1 14S       0.051200
     41 H7           0.5410     0.7780    -2.2760 h1         1 14S       0.051700
     42 H8           2.3440     0.9330    -2.5360 h1         1 14S       0.051700
     43 H9           0.9890    -1.8320    -2.1950 hc         1 14S       0.086200
     44 H10          2.5970    -1.4380    -2.9510 hc         1 14S       0.086200
     45 H11         -0.1080    -0.3730    -4.0630 hx         1 14S       0.105200
     46 H12          1.5440    -0.3240    -4.8680 hx         1 14S       0.105200
     47 H13          0.2260    -2.8750    -4.1180 hn         1 14S       0.451800
     48 H14          4.0440    -3.4970    -6.5460 hn         1 14S       0.464800
     49 H15          4.4770    -5.3910    -8.7220 h1         1 14S       0.088700
     50 H16          4.8710    -6.4520    -6.0620 hc         1 14S       0.062200
     51 H17          5.5400    -7.0760    -7.6080 hc         1 14S       0.062200
     52 H18          7.6580    -6.4660    -6.9200 hc         1 14S       0.051450
     53 H19          6.9890    -5.7940    -5.3900 hc         1 14S       0.051450
     54 H20          7.1020    -3.6140    -6.1720 hc         1 14S       0.051450
     55 H21          8.1630    -4.2620    -7.4770 hc         1 14S       0.051450
     56 H22          5.7740    -2.9650    -8.0120 hc         1 14S       0.062200
     57 H23          6.4350    -4.2620    -9.0730 hc         1 14S       0.062200
     58 H24         -0.5960    -4.3860    -5.5040 h4         1 14S       0.006100
     59 H25         -0.2000    -8.1420    -7.8270 hn         1 14S       0.458800
     60 H26          1.0850    -8.9890    -9.6350 h1         1 14S       0.093700
     61 H27          2.5190    -8.0000    -9.0840 h1         1 14S       0.093700
     62 H28          0.0980   -10.4300    -7.4020 ha         1 14S       0.129000
     63 H29          0.8630   -12.4000    -6.1040 ha         1 14S       0.145000
     64 H30          3.3020   -12.8930    -5.8930 ha         1 14S       0.145000
     65 H31          4.9750   -11.4170    -6.9780 ha         1 14S       0.147000
     66 H32          5.7750   -10.6090    -8.9940 h1         1 14S       0.050700
     67 H33          6.1580    -8.8190    -9.1770 h1         1 14S       0.050700
     68 H34          6.1730    -9.5990    -7.5110 h1         1 14S       0.050700
     69 H102        -0.1590    -2.0840    -5.5320 hn         1 14S       0.451800
@<TRIPOS>BOND
     1     1     2 2   
     2     2     3 1   
     3     2     6 1   
     4     3     4 1   
     5     3    35 1   
     6     3    36 1   
     7     4     5 1   
     8     4    37 1   
     9     4    38 1   
    10     5     6 1   
    11     5    39 1   
    12     5    40 1   
    13     6     7 1   
    14     7     8 1   
    15     7    41 1   
    16     7    42 1   
    17     8     9 1   
    18     8    43 1   
    19     8    44 1   
    20     9    10 1   
    21     9    45 1   
    22     9    46 1   
    23    10    11 1   
    24    10    47 1   
    25    10    69 1   
    26    11    12 2   
    27    11    13 1   
    28    13    14 ar  
    29    13    21 ar  
    30    14    15 1   
    31    14    24 ar  
    32    15    16 1   
    33    15    48 1   
    34    16    17 1   
    35    16    20 1   
    36    16    49 1   
    37    17    18 1   
    38    17    50 1   
    39    17    51 1   
    40    18    19 1   
    41    18    52 1   
    42    18    53 1   
    43    19    20 1   
    44    19    54 1   
    45    19    55 1   
    46    20    56 1   
    47    20    57 1   
    48    21    22 ar  
    49    21    58 1   
    50    22    23 ar  
    51    23    24 ar  
    52    23    25 1   
    53    25    26 1   
    54    25    59 1   
    55    26    27 1   
    56    26    60 1   
    57    26    61 1   
    58    27    28 ar  
    59    27    32 ar  
    60    28    29 ar  
    61    28    62 1   
    62    29    30 ar  
    63    29    63 1   
    64    30    31 ar  
    65    30    64 1   
    66    31    32 ar  
    67    31    65 1   
    68    32    33 1   
    69    33    34 1   
    70    34    66 1   
    71    34    67 1   
    72    34    68 1   
@<TRIPOS>SUBSTRUCTURE
     1 14S         1 TEMP              0 ****  ****    0 ROOT
