@<TRIPOS>MOLECULE
14U
   57    56     1     0     0
SMALL
bcc


@<TRIPOS>ATOM
      1 CAA         0.0370   -0.3690   -0.0330 c3        1 14U     -0.092100
      2 CAB        17.7870    0.8000   11.6220 c3        1 14U     -0.054100
      3 OAC        15.3170   -1.9180   11.7820 o         1 14U     -0.827300
      4 OAD        16.4270    1.0540    9.1950 o         1 14U     -0.600100
      5 CAE        16.4330   -1.3380   11.6540 c         1 14U      0.927600
      6 CAF         1.5190   -0.0970    0.0140 c3        1 14U     -0.080400
      7 CAG         2.0720   -0.2720    1.4130 c3        1 14U     -0.079400
      8 CAH         3.5600    0.0020    1.4550 c3        1 14U     -0.079400
      9 CAI         4.1120   -0.1730    2.8530 c3        1 14U     -0.079400
     10 CAJ         5.6000    0.1010    2.8960 c3        1 14U     -0.079400
     11 CAK         6.1520   -0.0750    4.2940 c3        1 14U     -0.079400
     12 CAL         7.6400    0.2000    4.3370 c3        1 14U     -0.078400
     13 CAM         8.1930    0.0250    5.7350 c3        1 14U     -0.079400
     14 CAN         9.6800    0.2990    5.7780 c3        1 14U     -0.078400
     15 CAO        10.2330    0.1250    7.1770 c3        1 14U     -0.079400
     16 CAP        11.7200    0.4000    7.2210 c3        1 14U     -0.078400
     17 CAQ        12.2730    0.2250    8.6190 c3        1 14U     -0.078400
     18 CAR        13.7600    0.5010    8.6620 c3        1 14U     -0.067400
     19 CAS        14.3110    0.3120   10.0560 c3        1 14U     -0.204400
     20 CAT        15.7910    0.5730   10.1450 c         1 14U      0.601100
     21 CAU        16.4060    0.2160   11.4630 c3        1 14U     -0.298700
     22 HAA        -0.3500   -0.2340   -1.0710 hc        1 14U      0.031033
     23 HAAA       -0.5130    0.3300    0.6420 hc        1 14U      0.031033
     24 HAAB       -0.1820   -1.4150    0.2930 hc        1 14U      0.031033
     25 HAB        17.7590    1.9140   11.5520 hc        1 14U      0.024367
     26 HABA       18.4570    0.4050   10.8210 hc        1 14U      0.024367
     27 HABB       18.2100    0.5000   12.6100 hc        1 14U      0.024367
     28 HAF         1.7210    0.9490   -0.3390 hc        1 14U      0.037700
     29 HAFA        2.0520   -0.7910   -0.6880 hc        1 14U      0.037700
     30 HAG         1.5420    0.4220    2.1160 hc        1 14U      0.039200
     31 HAGA        1.8720   -1.3170    1.7670 hc        1 14U      0.039200
     32 HAH         4.0910   -0.6930    0.7510 hc        1 14U      0.038700
     33 HAHA        3.7600    1.0470    1.1000 hc        1 14U      0.038700
     34 HAI         3.9120   -1.2190    3.2080 hc        1 14U      0.039200
     35 HAIA        3.5820    0.5210    3.5570 hc        1 14U      0.039200
     36 HAJ         5.8000    1.1460    2.5410 hc        1 14U      0.038700
     37 HAJA        6.1310   -0.5940    2.1920 hc        1 14U      0.038700
     38 HAK         5.6220    0.6200    4.9980 hc        1 14U      0.038700
     39 HAKA        5.9530   -1.1200    4.6490 hc        1 14U      0.038700
     40 HAL         7.8400    1.2450    3.9820 hc        1 14U      0.038200
     41 HALA        8.1710   -0.4950    3.6340 hc        1 14U      0.038200
     42 HAM         7.9930   -1.0210    6.0900 hc        1 14U      0.038200
     43 HAMA        7.6620    0.7190    6.4390 hc        1 14U      0.038200
     44 HAN         9.8800    1.3450    5.4230 hc        1 14U      0.037200
     45 HANA       10.2120   -0.3960    5.0760 hc        1 14U      0.037200
     46 HAO         9.7010    0.8190    7.8800 hc        1 14U      0.037700
     47 HAOA       10.0340   -0.9200    7.5320 hc        1 14U      0.037700
     48 HAP        12.2520   -0.2950    6.5180 hc        1 14U      0.036700
     49 HAPA       11.9210    1.4450    6.8650 hc        1 14U      0.036700
     50 HAQ        11.7400    0.9170    9.3230 hc        1 14U      0.037200
     51 HAQA       12.0770   -0.8210    8.9740 hc        1 14U      0.037200
     52 HAR        13.9660    1.5480    8.3130 hc        1 14U      0.041700
     53 HARA       14.2970   -0.1870    7.9570 hc        1 14U      0.041700
     54 HAS        14.1350   -0.7430   10.4190 hc        1 14U      0.086200
     55 HASA       13.7900    1.0000   10.7730 hc        1 14U      0.086200
     56 HAU        15.7320    0.6060   12.2750 hc        1 14U      0.050700
     57 O3         17.5490   -1.9150   11.7070 o         1 14U     -0.827300
@<TRIPOS>BOND
     1    1    6 1   
     2    1   22 1   
     3    1   23 1   
     4    1   24 1   
     5    2   21 1   
     6    2   25 1   
     7    2   26 1   
     8    2   27 1   
     9    3    5 1   
    10    4   20 2   
    11    5   21 1   
    12    5   57 1   
    13    6    7 1   
    14    6   28 1   
    15    6   29 1   
    16    7    8 1   
    17    7   30 1   
    18    7   31 1   
    19    8    9 1   
    20    8   32 1   
    21    8   33 1   
    22    9   10 1   
    23    9   34 1   
    24    9   35 1   
    25   10   11 1   
    26   10   36 1   
    27   10   37 1   
    28   11   12 1   
    29   11   38 1   
    30   11   39 1   
    31   12   13 1   
    32   12   40 1   
    33   12   41 1   
    34   13   14 1   
    35   13   42 1   
    36   13   43 1   
    37   14   15 1   
    38   14   44 1   
    39   14   45 1   
    40   15   16 1   
    41   15   46 1   
    42   15   47 1   
    43   16   17 1   
    44   16   48 1   
    45   16   49 1   
    46   17   18 1   
    47   17   50 1   
    48   17   51 1   
    49   18   19 1   
    50   18   52 1   
    51   18   53 1   
    52   19   20 1   
    53   19   54 1   
    54   19   55 1   
    55   20   21 1   
    56   21   56 1   
@<TRIPOS>SUBSTRUCTURE
     1 14U         1 TEMP              0 ****  ****    0 ROOT
