@<TRIPOS>MOLECULE
molecule
   57    56     1     0     0
SMALL
bcc


@<TRIPOS>ATOM
      1 CAA          0.0000     0.0000     0.0000 c3         1 14U      -0.092100
      2 CAB         16.6870     1.4380    11.9060 c3         1 14U      -0.056100
      3 OAC         18.2360    -0.9870    10.0970 o          1 14U      -0.832800
      4 OAD         16.3910     0.0020     9.0510 o          1 14U      -0.486100
      5 CAE         17.9070    -0.5990    11.1930 c          1 14U       0.894600
      6 CAF          1.5300     0.0000     0.0000 c3         1 14U      -0.084400
      7 CAG          2.0400     0.0000     1.4420 c3         1 14U      -0.081400
      8 CAH          3.5700    -0.0000     1.4420 c3         1 14U      -0.082400
      9 CAI          4.0800     0.0000     2.8850 c3         1 14U      -0.082400
     10 CAJ          5.6100     0.0000     2.8850 c3         1 14U      -0.082400
     11 CAK          6.1200     0.0000     4.3270 c3         1 14U      -0.082400
     12 CAL          7.6500     0.0000     4.3270 c3         1 14U      -0.082400
     13 CAM          8.1600     0.0010     5.7700 c3         1 14U      -0.082400
     14 CAN          9.6900     0.0000     5.7690 c3         1 14U      -0.082400
     15 CAO         10.2000     0.0010     7.2120 c3         1 14U      -0.082400
     16 CAP         11.7300     0.0010     7.2120 c3         1 14U      -0.081400
     17 CAQ         12.2410     0.0010     8.6540 c3         1 14U      -0.085400
     18 CAR         13.7700     0.0010     8.6540 c3         1 14U      -0.071400
     19 CAS         14.2800     0.0010    10.0970 c3         1 14U      -0.192400
     20 CAT         15.7880     0.0020    10.0970 c          1 14U       0.560100
     21 CAU         16.5410     0.0020    11.4010 c3         1 14U      -0.270700
     22 HAA         -0.3610    -0.8850     0.5110 hc         1 14U       0.031033
     23 HAAA        -0.3610     0.0000    -1.0210 hc         1 14U       0.031033
     24 HAAB        -0.3610     0.8840     0.5110 hc         1 14U       0.031033
     25 HAB         17.7350     1.6580    12.0710 hc         1 14U       0.024367
     26 HABA        16.1440     1.5510    12.8370 hc         1 14U       0.024367
     27 HABB        16.2860     2.1230    11.1690 hc         1 14U       0.024367
     28 HAF          1.8910     0.8840    -0.5110 hc         1 14U       0.039700
     29 HAFA         1.8910    -0.8840    -0.5110 hc         1 14U       0.039700
     30 HAG          1.6790    -0.8840     1.9530 hc         1 14U       0.040700
     31 HAGA         1.6790     0.8840     1.9530 hc         1 14U       0.040700
     32 HAH          3.9310    -0.8850     0.9320 hc         1 14U       0.040700
     33 HAHA         3.9310     0.8840     0.9310 hc         1 14U       0.040700
     34 HAI          3.7190     0.8850     3.3950 hc         1 14U       0.040200
     35 HAIA         3.7190    -0.8840     3.3960 hc         1 14U       0.040200
     36 HAJ          5.9710    -0.8840     2.3740 hc         1 14U       0.040700
     37 HAJA         5.9710     0.8850     2.3740 hc         1 14U       0.040700
     38 HAK          5.7590    -0.8840     4.8380 hc         1 14U       0.039700
     39 HAKA         5.7590     0.8850     4.8380 hc         1 14U       0.039700
     40 HAL          8.0110    -0.8840     3.8170 hc         1 14U       0.040700
     41 HALA         8.0110     0.8850     3.8160 hc         1 14U       0.040700
     42 HAM          7.7990     0.8860     6.2810 hc         1 14U       0.039200
     43 HAMA         7.7990    -0.8830     6.2810 hc         1 14U       0.039200
     44 HAN         10.0520     0.8850     5.2580 hc         1 14U       0.041200
     45 HANA        10.0510    -0.8840     5.2590 hc         1 14U       0.041200
     46 HAO          9.8390     0.8860     7.7230 hc         1 14U       0.038200
     47 HAOA         9.8390    -0.8830     7.7230 hc         1 14U       0.038200
     48 HAP         12.0910     0.8850     6.7020 hc         1 14U       0.041700
     49 HAPA        12.0910    -0.8840     6.7020 hc         1 14U       0.041700
     50 HAQ         11.8800    -0.8840     9.1650 hc         1 14U       0.033700
     51 HAQA        11.8800     0.8850     9.1650 hc         1 14U       0.033700
     52 HAR         14.1310     0.8850     8.1440 hc         1 14U       0.052700
     53 HARA        14.1310    -0.8840     8.1440 hc         1 14U       0.052700
     54 HAS         13.9190     0.8860    10.6080 hc         1 14U       0.048700
     55 HASA        13.9190    -0.8830    10.6080 hc         1 14U       0.048700
     56 HAU         15.9970    -0.5840    12.1320 hc         1 14U       0.046700
     57 O3          18.7700    -0.6760    12.2180 o          1 14U      -0.832800
@<TRIPOS>BOND
     1     1     6 1   
     2     1    22 1   
     3     1    23 1   
     4     1    24 1   
     5     2    25 1   
     6     2    26 1   
     7     2    27 1   
     8     3     5 1   
     9     4    20 2   
    10     5    57 1   
    11     6     7 1   
    12     6    28 1   
    13     6    29 1   
    14     7     8 1   
    15     7    30 1   
    16     7    31 1   
    17     8     9 1   
    18     8    32 1   
    19     8    33 1   
    20     9    10 1   
    21     9    34 1   
    22     9    35 1   
    23    10    36 1   
    24    10    37 1   
    25    11    10 1   
    26    11    12 1   
    27    11    38 1   
    28    11    39 1   
    29    12    40 1   
    30    12    41 1   
    31    13    12 1   
    32    13    14 1   
    33    13    42 1   
    34    13    43 1   
    35    14    15 1   
    36    14    44 1   
    37    14    45 1   
    38    15    16 1   
    39    15    46 1   
    40    15    47 1   
    41    16    17 1   
    42    16    48 1   
    43    16    49 1   
    44    17    18 1   
    45    17    50 1   
    46    17    51 1   
    47    18    19 1   
    48    18    52 1   
    49    18    53 1   
    50    19    20 1   
    51    19    54 1   
    52    19    55 1   
    53    20    21 1   
    54    21     2 1   
    55    21     5 1   
    56    21    56 1   
@<TRIPOS>SUBSTRUCTURE
     1 14U         1 TEMP              0 ****  ****    0 ROOT
