@<TRIPOS>MOLECULE
14U
   57    56     1     0     0
SMALL
bcc


@<TRIPOS>ATOM
      1 CAA          0.2300    -0.8750    -0.4480 c3         1 14U      -0.092100
      2 CAB         15.7080    -0.2760    11.0640 c3         1 14U      -0.054100
      3 OAC         15.0390    -2.9170    10.9850 o          1 14U      -0.827300
      4 OAD         15.0920     0.1770     8.3770 o          1 14U      -0.600100
      5 CAE         14.0790    -2.1710    10.6650 c          1 14U       0.927600
      6 CAF          1.6680    -0.8790     0.0020 c3         1 14U      -0.080400
      7 CAG          1.8560    -0.0740     1.2700 c3         1 14U      -0.079400
      8 CAH          3.3030    -0.0810     1.7180 c3         1 14U      -0.079400
      9 CAI          3.4890     0.7250     2.9860 c3         1 14U      -0.077400
     10 CAJ          4.9230     0.7160     3.4720 c3         1 14U      -0.079400
     11 CAK          5.8160     1.6280     2.6570 c3         1 14U      -0.076400
     12 CAL          7.2370     1.6610     3.1790 c3         1 14U      -0.079400
     13 CAM          8.0190     0.4180     2.8120 c3         1 14U      -0.077400
     14 CAN          9.4540     0.4770     3.2900 c3         1 14U      -0.078400
     15 CAO          9.5830     0.2250     4.7770 c3         1 14U      -0.079400
     16 CAP         11.0310     0.2630     5.2190 c3         1 14U      -0.078400
     17 CAQ         11.1610     0.0110     6.7060 c3         1 14U      -0.078400
     18 CAR         12.6080     0.0490     7.1460 c3         1 14U      -0.067400
     19 CAS         12.7360    -0.2150     8.6280 c3         1 14U      -0.204400
     20 CAT         14.1610    -0.1920     9.1100 c          1 14U       0.601100
     21 CAU         14.3450    -0.6340    10.5290 c3         1 14U      -0.298700
     22 HAA         -0.1180     0.1670    -0.6500 hc         1 14U       0.030700
     23 HAAA         0.1130    -1.4740    -1.3830 hc         1 14U       0.030700
     24 HAAB        -0.4300    -1.3170     0.3380 hc         1 14U       0.030700
     25 HAB         15.8040    -0.6320    12.1170 hc         1 14U       0.024367
     26 HABA        16.4960    -0.7780    10.4520 hc         1 14U       0.024367
     27 HABB        15.8730     0.8280    11.0290 hc         1 14U       0.024367
     28 HAF          2.0060    -1.9340     0.1760 hc         1 14U       0.038700
     29 HAFA         2.3170    -0.4550    -0.8090 hc         1 14U       0.038700
     30 HAG          1.5210     0.9830     1.0980 hc         1 14U       0.037700
     31 HAGA         1.2090    -0.4970     2.0830 hc         1 14U       0.037700
     32 HAH          3.6370    -1.1380     1.8910 hc         1 14U       0.041200
     33 HAHA         3.9490     0.3400     0.9030 hc         1 14U       0.041200
     34 HAI          3.1550     1.7820     2.8110 hc         1 14U       0.036700
     35 HAIA         2.8300     0.2990     3.7890 hc         1 14U       0.036700
     36 HAJ          4.9450     1.0470     4.5450 hc         1 14U       0.043200
     37 HAJA         5.3250    -0.3310     3.4410 hc         1 14U       0.043200
     38 HAK          5.8160     1.2960     1.5850 hc         1 14U       0.034700
     39 HAKA         5.3950     2.6690     2.6810 hc         1 14U       0.034700
     40 HAL          7.2260     1.7830     4.2950 hc         1 14U       0.041200
     41 HALA         7.7590     2.5600     2.7540 hc         1 14U       0.041200
     42 HAM          8.0110     0.2970     1.6960 hc         1 14U       0.035200
     43 HAMA         7.5160    -0.4860     3.2470 hc         1 14U       0.035200
     44 HAN          9.8950     1.4780     3.0410 hc         1 14U       0.037200
     45 HANA        10.0530    -0.2950     2.7370 hc         1 14U       0.037200
     46 HAO          8.9990     0.9960     5.3450 hc         1 14U       0.038200
     47 HAOA         9.1410    -0.7750     5.0300 hc         1 14U       0.038200
     48 HAP         11.4760     1.2610     4.9660 hc         1 14U       0.036700
     49 HAPA        11.6160    -0.5110     4.6560 hc         1 14U       0.036700
     50 HAQ         10.5750     0.7830     7.2700 hc         1 14U       0.037200
     51 HAQA        10.7190    -0.9890     6.9600 hc         1 14U       0.037200
     52 HAR         13.0580     1.0470     6.9000 hc         1 14U       0.041700
     53 HARA        13.1990    -0.7200     6.5820 hc         1 14U       0.041700
     54 HAS         12.1570     0.5510     9.2070 hc         1 14U       0.086200
     55 HASA        12.3090    -1.2270     8.8950 hc         1 14U       0.086200
     56 HAU         13.5500    -0.1360    11.1500 hc         1 14U       0.050700
     57 O3          12.8930    -2.5650    10.4780 o          1 14U      -0.827300
@<TRIPOS>BOND
     1     1     6 1   
     2     1    22 1   
     3     1    23 1   
     4     1    24 1   
     5     2    21 1   
     6     2    25 1   
     7     2    26 1   
     8     2    27 1   
     9     3     5 1   
    10     4    20 2   
    11     5    21 1   
    12     5    57 1   
    13     6     7 1   
    14     6    28 1   
    15     6    29 1   
    16     7     8 1   
    17     7    30 1   
    18     7    31 1   
    19     8     9 1   
    20     8    32 1   
    21     8    33 1   
    22     9    10 1   
    23     9    34 1   
    24     9    35 1   
    25    10    11 1   
    26    10    36 1   
    27    10    37 1   
    28    11    12 1   
    29    11    38 1   
    30    11    39 1   
    31    12    13 1   
    32    12    40 1   
    33    12    41 1   
    34    13    14 1   
    35    13    42 1   
    36    13    43 1   
    37    14    15 1   
    38    14    44 1   
    39    14    45 1   
    40    15    16 1   
    41    15    46 1   
    42    15    47 1   
    43    16    17 1   
    44    16    48 1   
    45    16    49 1   
    46    17    18 1   
    47    17    50 1   
    48    17    51 1   
    49    18    19 1   
    50    18    52 1   
    51    18    53 1   
    52    19    20 1   
    53    19    54 1   
    54    19    55 1   
    55    20    21 1   
    56    21    56 1   
@<TRIPOS>SUBSTRUCTURE
     1 14U         1 TEMP              0 ****  ****    0 ROOT
