@<TRIPOS>MOLECULE
molecule
   59    58     1     0     0
SMALL
bcc


@<TRIPOS>ATOM
      1 CAA          0.0000     0.0000     0.0000 c3         1 14V      -0.092100
      2 OAB         20.5980    -0.0020    10.5340 o          1 14V      -0.831300
      3 OAC         18.4270    -0.0030     9.9840 o          1 14V      -0.426100
      4 OAD         16.3930    -0.0030     9.0490 o          1 14V      -0.471100
      5 CAE         20.4110    -0.0030    11.7270 c          1 14V       0.888600
      6 CAF          1.5300     0.0000     0.0000 c3         1 14V      -0.084400
      7 CAG          2.0410     0.0000     1.4430 c3         1 14V      -0.082400
      8 CAH          3.5710    -0.0000     1.4420 c3         1 14V      -0.082400
      9 CAI          4.0810    -0.0010     2.8850 c3         1 14V      -0.081400
     10 CAJ          5.6100    -0.0010     2.8840 c3         1 14V      -0.082400
     11 CAK          6.1210    -0.0010     4.3260 c3         1 14V      -0.082400
     12 CAL          7.6510    -0.0010     4.3260 c3         1 14V      -0.082400
     13 CAM          8.1620    -0.0020     5.7680 c3         1 14V      -0.082400
     14 CAN          9.6920    -0.0020     5.7680 c3         1 14V      -0.082400
     15 CAO         10.2020    -0.0020     7.2110 c3         1 14V      -0.082400
     16 CAP         11.7310    -0.0020     7.2100 c3         1 14V      -0.080400
     17 CAQ         12.2420    -0.0030     8.6520 c3         1 14V      -0.084400
     18 CAR         13.7720    -0.0030     8.6520 c3         1 14V      -0.071400
     19 CAS         19.0050    -0.0040    12.2690 c3         1 14V      -0.278400
     20 CAT         14.2820    -0.0030    10.0940 c3         1 14V      -0.187400
     21 CAU         16.5430    -0.0040    11.3990 c3         1 14V      -0.297400
     22 CAV         18.0250    -0.0040    11.1240 c          1 14V       0.534100
     23 CAW         15.7890    -0.0030    10.0940 c          1 14V       0.547100
     24 HAA         -0.3610     0.0000    -1.0210 hc         1 14V       0.031033
     25 HAAA        -0.3610    -0.8850     0.5110 hc         1 14V       0.031033
     26 HAAB        -0.3610     0.8850     0.5110 hc         1 14V       0.031033
     27 O4          21.4550    -0.0040    12.5710 o          1 14V      -0.831300
     28 HAF          1.8910     0.8850    -0.5110 hc         1 14V       0.039700
     29 HAFA         1.8910    -0.8850    -0.5110 hc         1 14V       0.039700
     30 HAG          1.6800     0.8850     1.9540 hc         1 14V       0.040700
     31 HAGA         1.6800    -0.8850     1.9540 hc         1 14V       0.040700
     32 HAH          3.9310     0.8850     0.9310 hc         1 14V       0.040700
     33 HAHA         3.9310    -0.8840     0.9300 hc         1 14V       0.040700
     34 HAI          3.7200    -0.8860     3.3950 hc         1 14V       0.040700
     35 HAIA         3.7200     0.8830     3.3960 hc         1 14V       0.040700
     36 HAJ          5.9710    -0.8850     2.3730 hc         1 14V       0.040700
     37 HAJA         5.9710     0.8830     2.3730 hc         1 14V       0.040700
     38 HAK          5.7600     0.8830     4.8370 hc         1 14V       0.039700
     39 HAKA         5.7600    -0.8850     4.8370 hc         1 14V       0.039700
     40 HAL          8.0120    -0.8850     3.8150 hc         1 14V       0.041700
     41 HALA         8.0120     0.8840     3.8160 hc         1 14V       0.041700
     42 HAM          7.8010     0.8820     6.2800 hc         1 14V       0.039700
     43 HAMA         7.8010    -0.8870     6.2790 hc         1 14V       0.039700
     44 HAN         10.0530     0.8830     5.2570 hc         1 14V       0.041700
     45 HANA        10.0530    -0.8870     5.2570 hc         1 14V       0.041700
     46 HAO          9.8410     0.8830     7.7220 hc         1 14V       0.038700
     47 HAOA         9.8410    -0.8870     7.7220 hc         1 14V       0.038700
     48 HAP         12.0920     0.8830     6.7000 hc         1 14V       0.043700
     49 HAPA        12.0920    -0.8860     6.6990 hc         1 14V       0.043700
     50 HAQ         11.8810     0.8810     9.1640 hc         1 14V       0.035700
     51 HAQA        11.8810    -0.8880     9.1630 hc         1 14V       0.035700
     52 HAR         14.1330     0.8810     8.1420 hc         1 14V       0.056700
     53 HARA        14.1330    -0.8880     8.1420 hc         1 14V       0.056700
     54 HAS         18.8520    -0.8890    12.8740 hc         1 14V       0.046700
     55 HASA        18.8510     0.8800    12.8760 hc         1 14V       0.046700
     56 HAT         13.9210    -0.8880    10.6050 hc         1 14V       0.053700
     57 HATA        13.9210     0.8810    10.6050 hc         1 14V       0.053700
     58 HAU         16.2810    -0.8880    11.9670 hc         1 14V       0.066700
     59 HAUA        16.2820     0.8810    11.9670 hc         1 14V       0.066700
@<TRIPOS>BOND
     1     1     6 1
     2     1    24 1
     3     1    25 1
     4     1    26 1
     5     3    22 2
     6     5     2 1
     7     5    27 1
     8     6     7 1
     9     6    28 1
    10     6    29 1
    11     7     8 1
    12     7    30 1
    13     7    31 1
    14     8     9 1
    15     8    32 1
    16     8    33 1
    17     9    34 1
    18     9    35 1
    19    10     9 1
    20    10    11 1
    21    10    36 1
    22    10    37 1
    23    11    38 1
    24    11    39 1
    25    12    11 1
    26    12    13 1
    27    12    40 1
    28    12    41 1
    29    13    14 1
    30    13    42 1
    31    13    43 1
    32    14    15 1
    33    14    44 1
    34    14    45 1
    35    15    16 1
    36    15    46 1
    37    15    47 1
    38    16    17 1
    39    16    48 1
    40    16    49 1
    41    17    18 1
    42    17    50 1
    43    17    51 1
    44    18    52 1
    45    18    53 1
    46    19     5 1
    47    19    54 1
    48    19    55 1
    49    20    18 1
    50    20    23 1
    51    20    56 1
    52    20    57 1
    53    21    23 1
    54    21    58 1
    55    21    59 1
    56    22    19 1
    57    22    21 1
    58    23     4 2
@<TRIPOS>SUBSTRUCTURE
     1 14V         1 TEMP              0 ****  ****    0 ROOT
