@<TRIPOS>MOLECULE
14V
   59    58     1     0     0
SMALL
bcc


@<TRIPOS>ATOM
      1 CAA        -0.1950   -0.0320    0.8720 c3        1 14V     -0.092100
      2 OAB        16.5600    1.7420   12.6680 o         1 14V     -0.827800
      3 OAC        16.5230   -1.9130   11.1620 o         1 14V     -0.601100
      4 OAD        17.2960   -0.0710    7.9690 o         1 14V     -0.583100
      5 CAE        16.7280    0.7080   13.3760 c         1 14V      0.926600
      6 CAF         1.3020    0.0580    0.7210 c3        1 14V     -0.080400
      7 CAG         2.0020   -0.0320    2.0600 c3        1 14V     -0.079400
      8 CAH         3.5050    0.0590    1.9030 c3        1 14V     -0.079400
      9 CAI         4.2040   -0.0330    3.2420 c3        1 14V     -0.079400
     10 CAJ         5.7070    0.0580    3.0860 c3        1 14V     -0.078400
     11 CAK         6.4060   -0.0340    4.4260 c3        1 14V     -0.079400
     12 CAL         7.9090    0.0570    4.2700 c3        1 14V     -0.078400
     13 CAM         8.6070   -0.0360    5.6090 c3        1 14V     -0.079400
     14 CAN        10.1100    0.0550    5.4540 c3        1 14V     -0.078400
     15 CAO        10.8090   -0.0390    6.7930 c3        1 14V     -0.079400
     16 CAP        12.3120    0.0520    6.6390 c3        1 14V     -0.077400
     17 CAQ        13.0090   -0.0440    7.9790 c3        1 14V     -0.080400
     18 CAR        14.5120    0.0460    7.8220 c3        1 14V     -0.068400
     19 CAS        17.5530   -0.4670   12.7820 c3        1 14V     -0.315400
     20 CAT        15.2040   -0.0460    9.1630 c3        1 14V     -0.194400
     21 CAU        17.4350    0.1620   10.3470 c3        1 14V     -0.320400
     22 CAV        17.1080   -0.8480   11.4140 c         1 14V      0.614100
     23 CAW        16.7000   -0.0060    9.0530 c         1 14V      0.600100
     24 HAA        -0.5770    0.7980    1.5140 hc        1 14V      0.031033
     25 HAAA       -0.4850   -1.0010    1.3440 hc        1 14V      0.031033
     26 HAAB       -0.6910    0.0360   -0.1260 hc        1 14V      0.031033
     27 O4         16.3070    0.5690   14.5530 o         1 14V     -0.827800
     28 HAF         1.5720    1.0270    0.2220 hc        1 14V      0.037700
     29 HAFA        1.6640   -0.7680    0.0530 hc        1 14V      0.037700
     30 HAG         1.7340   -1.0000    2.5590 hc        1 14V      0.039700
     31 HAGA        1.6430    0.7940    2.7280 hc        1 14V      0.039700
     32 HAH         3.8640   -0.7670    1.2340 hc        1 14V      0.038700
     33 HAHA        3.7730    1.0270    1.4040 hc        1 14V      0.038700
     34 HAI         3.8450    0.7930    3.9110 hc        1 14V      0.039700
     35 HAIA        3.9360   -1.0010    3.7410 hc        1 14V      0.039700
     36 HAJ         5.9750    1.0270    2.5880 hc        1 14V      0.038700
     37 HAJA        6.0660   -0.7680    2.4170 hc        1 14V      0.038700
     38 HAK         6.1380   -1.0030    4.9240 hc        1 14V      0.039700
     39 HAKA        6.0460    0.7910    5.0950 hc        1 14V      0.039700
     40 HAL         8.2680   -0.7680    3.6000 hc        1 14V      0.037700
     41 HALA        8.1770    1.0260    3.7720 hc        1 14V      0.037700
     42 HAM         8.2480    0.7890    6.2790 hc        1 14V      0.039700
     43 HAMA        8.3390   -1.0050    6.1070 hc        1 14V      0.039700
     44 HAN        10.3790    1.0250    4.9580 hc        1 14V      0.037200
     45 HANA       10.4700   -0.7690    4.7830 hc        1 14V      0.037200
     46 HAO        10.4500    0.7850    7.4640 hc        1 14V      0.040200
     47 HAOA       10.5400   -1.0090    7.2900 hc        1 14V      0.040200
     48 HAP        12.6720   -0.7720    5.9680 hc        1 14V      0.036700
     49 HAPA       12.5810    1.0220    6.1430 hc        1 14V      0.036700
     50 HAQ        12.6510    0.7810    8.6500 hc        1 14V      0.042200
     51 HAQA       12.7400   -1.0130    8.4750 hc        1 14V      0.042200
     52 HAR        14.8790   -0.7790    7.1560 hc        1 14V      0.043200
     53 HARA       14.7870    1.0120    7.3240 hc        1 14V      0.043200
     54 HAS        18.6190   -0.1280   12.7480 hc        1 14V      0.057200
     55 HASA       17.4690   -1.3430   13.4740 hc        1 14V      0.057200
     56 HAT        14.8710    0.7920    9.8330 hc        1 14V      0.089700
     57 HATA       14.9340   -1.0100    9.6780 hc        1 14V      0.089700
     58 HAU        18.5420    0.1320   10.1650 hc        1 14V      0.117200
     59 HAUA       17.1810    1.1840   10.7750 hc        1 14V      0.117200
@<TRIPOS>BOND
     1    1    6 1   
     2    1   24 1   
     3    1   25 1   
     4    1   26 1   
     5    2    5 1   
     6    3   22 2   
     7    4   23 2   
     8    5   19 1   
     9    5   27 1   
    10    6    7 1   
    11    6   28 1   
    12    6   29 1   
    13    7    8 1   
    14    7   30 1   
    15    7   31 1   
    16    8    9 1   
    17    8   32 1   
    18    8   33 1   
    19    9   10 1   
    20    9   34 1   
    21    9   35 1   
    22   10   11 1   
    23   10   36 1   
    24   10   37 1   
    25   11   12 1   
    26   11   38 1   
    27   11   39 1   
    28   12   13 1   
    29   12   40 1   
    30   12   41 1   
    31   13   14 1   
    32   13   42 1   
    33   13   43 1   
    34   14   15 1   
    35   14   44 1   
    36   14   45 1   
    37   15   16 1   
    38   15   46 1   
    39   15   47 1   
    40   16   17 1   
    41   16   48 1   
    42   16   49 1   
    43   17   18 1   
    44   17   50 1   
    45   17   51 1   
    46   18   20 1   
    47   18   52 1   
    48   18   53 1   
    49   19   22 1   
    50   19   54 1   
    51   19   55 1   
    52   20   23 1   
    53   20   56 1   
    54   20   57 1   
    55   21   22 1   
    56   21   23 1   
    57   21   58 1   
    58   21   59 1   
@<TRIPOS>SUBSTRUCTURE
     1 14V         1 TEMP              0 ****  ****    0 ROOT
