@<TRIPOS>MOLECULE
14V
   59    58     1     0     0
SMALL
bcc


@<TRIPOS>ATOM
      1 CAA         -0.5130     1.5610     2.0300 c3         1 14V      -0.092100
      2 OAB         15.8640     0.3050     9.0790 o          1 14V      -0.828300
      3 OAC         14.6580     2.4930    12.5820 o          1 14V      -0.587100
      4 OAD         11.3570     0.8290    11.1040 o          1 14V      -0.574100
      5 CAE         16.4850     1.0800     9.8660 c          1 14V       0.920600
      6 CAF          0.5760     0.9510     1.1860 c3         1 14V      -0.080400
      7 CAG          1.6750     0.3570     2.0410 c3         1 14V      -0.080400
      8 CAH          2.7670    -0.2540     1.1880 c3         1 14V      -0.077400
      9 CAI          3.8700    -0.8750     2.0180 c3         1 14V      -0.078400
     10 CAJ          4.8000     0.1600     2.6140 c3         1 14V      -0.079400
     11 CAK          5.9060    -0.4930     3.4160 c3         1 14V      -0.079400
     12 CAL          6.8360     0.5410     4.0130 c3         1 14V      -0.078400
     13 CAM          7.9430    -0.1120     4.8140 c3         1 14V      -0.079400
     14 CAN          8.8730     0.9220     5.4120 c3         1 14V      -0.078400
     15 CAO          9.9800     0.2690     6.2120 c3         1 14V      -0.079400
     16 CAP         10.9110     1.3020     6.8110 c3         1 14V      -0.078400
     17 CAQ         12.0230     0.6460     7.6010 c3         1 14V      -0.077400
     18 CAR         12.9650     1.6540     8.2240 c3         1 14V      -0.101400
     19 CAS         15.7080     2.2910    10.4390 c3         1 14V      -0.315400
     20 CAT         12.4180     2.2530     9.5050 c3         1 14V      -0.177400
     21 CAU         13.7450     0.8040    11.1660 c3         1 14V      -0.313400
     22 CAV         14.7070     1.9240    11.4800 c          1 14V       0.605100
     23 CAW         12.4200     1.2640    10.6410 c          1 14V       0.597100
     24 HAA         -1.3120     1.9930     1.3810 hc         1 14V       0.031367
     25 HAAA        -0.1030     2.3750     2.6750 hc         1 14V       0.031367
     26 HAAB        -0.9750     0.7900     2.6940 hc         1 14V       0.031367
     27 O4          17.6950     0.9560    10.1830 o          1 14V      -0.828300
     28 HAF          0.1410     0.1530     0.5280 hc         1 14V       0.036700
     29 HAFA         1.0120     1.7340     0.5100 hc         1 14V       0.036700
     30 HAG          2.1110     1.1540     2.6990 hc         1 14V       0.041200
     31 HAGA         1.2420    -0.4280     2.7160 hc         1 14V       0.041200
     32 HAH          3.1990     0.5320     0.5140 hc         1 14V       0.036700
     33 HAHA         2.3160    -1.0440     0.5300 hc         1 14V       0.036700
     34 HAI          4.4660    -1.5710     1.3690 hc         1 14V       0.038700
     35 HAIA         3.4220    -1.4940     2.8400 hc         1 14V       0.038700
     36 HAJ          5.2480     0.7800     1.7930 hc         1 14V       0.038700
     37 HAJA         4.2190     0.8560     3.2740 hc         1 14V       0.038700
     38 HAK          5.4590    -1.1150     4.2360 hc         1 14V       0.039200
     39 HAKA         6.4900    -1.1870     2.7560 hc         1 14V       0.039200
     40 HAL          6.2530     1.2340     4.6750 hc         1 14V       0.038200
     41 HALA         7.2820     1.1640     3.1940 hc         1 14V       0.038200
     42 HAM          7.4970    -0.7350     5.6340 hc         1 14V       0.038700
     43 HAMA         8.5270    -0.8050     4.1530 hc         1 14V       0.038700
     44 HAN          9.3180     1.5460     4.5930 hc         1 14V       0.036700
     45 HANA         8.2900     1.6140     6.0750 hc         1 14V       0.036700
     46 HAO         10.5650    -0.4230     5.5500 hc         1 14V       0.040200
     47 HAOA         9.5360    -0.3550     7.0310 hc         1 14V       0.040200
     48 HAP         11.3500     1.9310     5.9930 hc         1 14V       0.034200
     49 HAPA        10.3270     1.9890     7.4790 hc         1 14V       0.034200
     50 HAQ         11.5810     0.0010     8.4070 hc         1 14V       0.046200
     51 HAQA        12.6110    -0.0260     6.9210 hc         1 14V       0.046200
     52 HAR         13.9600     1.1560     8.4360 hc         1 14V       0.079700
     53 HARA        13.1600     2.4860     7.4970 hc         1 14V       0.079700
     54 HAS         16.4430     3.0210    10.8640 hc         1 14V       0.059200
     55 HASA        15.1710     2.7720     9.5810 hc         1 14V       0.059200
     56 HAT         13.0500     3.1310     9.8050 hc         1 14V       0.054200
     57 HATA        11.3720     2.6220     9.3400 hc         1 14V       0.054200
     58 HAU         14.2160     0.1330    10.3830 hc         1 14V       0.114700
     59 HAUA        13.5820     0.1980    12.0970 hc         1 14V       0.114700
@<TRIPOS>BOND
     1     1     6 1   
     2     1    24 1   
     3     1    25 1   
     4     1    26 1   
     5     2     5 1   
     6     3    22 2   
     7     4    23 2   
     8     5    19 1   
     9     5    27 1   
    10     6     7 1   
    11     6    28 1   
    12     6    29 1   
    13     7     8 1   
    14     7    30 1   
    15     7    31 1   
    16     8     9 1   
    17     8    32 1   
    18     8    33 1   
    19     9    10 1   
    20     9    34 1   
    21     9    35 1   
    22    10    11 1   
    23    10    36 1   
    24    10    37 1   
    25    11    12 1   
    26    11    38 1   
    27    11    39 1   
    28    12    13 1   
    29    12    40 1   
    30    12    41 1   
    31    13    14 1   
    32    13    42 1   
    33    13    43 1   
    34    14    15 1   
    35    14    44 1   
    36    14    45 1   
    37    15    16 1   
    38    15    46 1   
    39    15    47 1   
    40    16    17 1   
    41    16    48 1   
    42    16    49 1   
    43    17    18 1   
    44    17    50 1   
    45    17    51 1   
    46    18    20 1   
    47    18    52 1   
    48    18    53 1   
    49    19    22 1   
    50    19    54 1   
    51    19    55 1   
    52    20    23 1   
    53    20    56 1   
    54    20    57 1   
    55    21    22 1   
    56    21    23 1   
    57    21    58 1   
    58    21    59 1   
@<TRIPOS>SUBSTRUCTURE
     1 14V         1 TEMP              0 ****  ****    0 ROOT
