@<TRIPOS>MOLECULE
molecule
   29    29     1     0     0
SMALL
bcc


@<TRIPOS>ATOM
      1 C2           0.0000     0.0000     0.0000 ca         1 14W      -0.086000
      2 C3           1.3940     0.0000     0.0000 ca         1 14W      -0.203300
      3 C4           2.0910     0.0000     1.2080 ca         1 14W      -0.097000
      4 C5           1.3930     0.0000     2.4160 ca         1 14W      -0.115000
      5 C6          -0.0010     0.0000     2.4160 ca         1 14W      -0.058000
      6 C1          -0.6880    -0.0000     1.2080 ca         1 14W      -0.094300
      7 C7          -2.1900    -0.0000     1.2080 c3         1 14W       0.284100
      8 N8          -2.7300     1.3380     1.2070 nu         1 14W      -0.889200
      9 C9          -4.0760     1.6320     1.2470 c2         1 14W       0.642200
     10 C10         -4.4550     3.0970     1.2420 c3         1 14W      -0.191400
     11 N11         -5.0320     0.7530     1.3000 n2         1 14W      -0.885100
     12 C12          2.1410     0.0000    -1.2910 c3         1 14W       0.149100
     13 N13          2.4150     1.3330    -1.7650 nz         1 14W      -0.799600
     14 H2          -0.5440    -0.0000    -0.9370 ha         1 14W       0.143000
     15 H4           3.1750    -0.0000     1.2090 ha         1 14W       0.138000
     16 H5           1.9350     0.0000     3.3540 ha         1 14W       0.162000
     17 H6          -0.5460     0.0000     3.3520 ha         1 14W       0.168000
     18 H71         -2.5420    -0.5210     2.0900 h1         1 14W       0.065200
     19 H72         -2.5420    -0.5220     0.3260 h1         1 14W       0.065200
     20 H8          -2.0850     2.1030     1.1750 hn         1 14W       0.427800
     21 H101        -3.9770     3.5960     2.0770 hc         1 14W       0.055367
     22 H102        -4.1290     3.5510     0.3150 hc         1 14W       0.055367
     23 H103        -5.5300     3.1920     1.3330 hc         1 14W       0.055367
     24 H11         -5.9860     1.0520     1.3310 hn         1 14W       0.423400
     25 H121         1.5530    -0.5230    -2.0350 hx         1 14W       0.111200
     26 H122         3.0790    -0.5230    -1.1530 hx         1 14W       0.111200
     27 H131         3.0140     1.2860    -2.5660 hn         1 14W       0.454800
     28 H132         2.8650     1.8580    -1.0420 hn         1 14W       0.454800
     29 H133         1.5560     1.7810    -2.0170 hn         1 14W       0.454800
@<TRIPOS>BOND
     1     1     2 ar
     2     1     6 ar
     3     1    14 1
     4     2     3 ar
     5     2    12 1
     6     3     4 ar
     7     3    15 1
     8     4     5 ar
     9     4    16 1
    10     5     6 ar
    11     5    17 1
    12     6     7 1
    13     7     8 1
    14     7    18 1
    15     7    19 1
    16     8     9 1
    17     8    20 1
    18     9    10 1
    19     9    11 2
    20    10    21 1
    21    10    22 1
    22    10    23 1
    23    11    24 1
    24    12    13 1
    25    12    25 1
    26    12    26 1
    27    13    27 1
    28    13    28 1
    29    29    13 1
@<TRIPOS>SUBSTRUCTURE
     1 14W         1 TEMP              0 ****  ****    0 ROOT
