@<TRIPOS>MOLECULE
14W
   29    29     1     0     0
SMALL
bcc


@<TRIPOS>ATOM
      1 C2           0.0000     0.0000     0.0000 ca         1 14W      -0.052000
      2 C3           1.3940     0.0000     0.0000 ca         1 14W      -0.215300
      3 C4           2.0910     0.0000     1.2080 ca         1 14W      -0.061000
      4 C5           1.3930     0.0000     2.4160 ca         1 14W      -0.076000
      5 C6          -0.0010     0.0000     2.4160 ca         1 14W      -0.022000
      6 C1          -0.6880    -0.0000     1.2080 ca         1 14W      -0.091300
      7 C7          -2.1900    -0.0000     1.2080 c3         1 14W       0.224100
      8 N8          -2.7300     1.3380     1.2070 nu         1 14W      -0.549200
      9 C9          -4.0760     1.6320     1.2470 c2         1 14W       0.454200
     10 C10         -4.4550     3.0970     1.2420 c3         1 14W      -0.022400
     11 N11         -5.0320     0.7530     1.3000 n2         1 14W      -0.722100
     12 C12          2.1410     0.0000    -1.2910 c3         1 14W       0.022100
     13 N13          2.4150     1.3330    -1.7650 nz         1 14W       0.095400
     14 H2          -0.5440    -0.0000    -0.9370 ha         1 14W       0.115000
     15 H4           3.1750    -0.0000     1.2090 ha         1 14W       0.110000
     16 H5           1.9350     0.0000     3.3540 ha         1 14W       0.129000
     17 H6          -0.5460     0.0000     3.3520 ha         1 14W       0.131000
     18 H71         -2.5420    -0.5220     0.3260 h1         1 14W       0.023200
     19 H72         -2.5420    -0.5210     2.0900 h1         1 14W       0.023200
     20 H8          -2.0850     2.1030     1.1750 hn         1 14W       0.283800
     21 H101        -4.0360     3.5810     2.1160 hc         1 14W       0.019367
     22 H102        -4.0660     3.5680     0.3480 hc         1 14W       0.019367
     23 H103        -5.5340     3.1910     1.2600 hc         1 14W       0.019367
     24 H11         -4.8130    -0.2240     1.3090 hn         1 14W       0.316400
     25 H121         3.0790    -0.5230    -1.1530 hx         1 14W       0.082700
     26 H122         1.5530    -0.5230    -2.0350 hx         1 14W       0.082700
     27 H131         2.8820     1.8530    -1.0480 hn         1 14W       0.220467
     28 H132         1.5550     1.7870    -2.0000 hn         1 14W       0.220467
     29 H133         2.9990     1.2850    -2.5760 hn         1 14W       0.220467
@<TRIPOS>BOND
     1     1     2 ar  
     2     1     6 ar  
     3     1    14 1   
     4     2     3 ar  
     5     2    12 1   
     6     3     4 ar  
     7     3    15 1   
     8     4     5 ar  
     9     4    16 1   
    10     5     6 ar  
    11     5    17 1   
    12     6     7 1   
    13     7     8 1   
    14     7    18 1   
    15     7    19 1   
    16     8     9 1   
    17     8    20 1   
    18     9    10 1   
    19     9    11 2   
    20    10    21 1   
    21    10    22 1   
    22    10    23 1   
    23    11    24 1   
    24    12    13 1   
    25    12    25 1   
    26    12    26 1   
    27    13    27 1   
    28    13    28 1   
    29    13    29 1   
@<TRIPOS>SUBSTRUCTURE
     1 14W         1 TEMP              0 ****  ****    0 ROOT
