@<TRIPOS>MOLECULE
14X
   37    39     1     0     0
SMALL
bcc


@<TRIPOS>ATOM
      1 C4           0.0000     0.0000     0.0000 ca         1 14X      -0.196500
      2 C5           1.3830     0.0000     0.0000 ca         1 14X       0.048000
      3 C6           2.0810     0.0000     1.1920 ca         1 14X      -0.185000
      4 C11         -0.8440    -3.8080    -2.8770 c3         1 14X      -0.037400
      5 C7           1.3910     0.0010     2.3960 ca         1 14X      -0.014400
      6 C8           1.4580     0.0030     4.7990 c          1 14X       0.611500
      7 C9          -2.2910    -2.4040    -1.5700 c3         1 14X       0.252800
      8 C10         -1.7860    -3.8660    -1.6460 c3         1 14X      -0.037400
      9 C12         -0.2190    -2.4020    -2.7670 c3         1 14X       0.252800
     10 N1           2.0780     0.0020     3.6110 ns         1 14X      -0.018100
     11 N2          -1.1260    -1.5830    -1.9500 n3         1 14X      -0.556500
     12 C3          -0.6930     0.0060     1.2000 ca         1 14X       0.053000
     13 O2          -2.1640     0.5440    -1.2480 o          1 14X      -0.584800
     14 S           -0.8810    -0.0010    -1.5260 sy         1 14X       1.075200
     15 O1           0.0010     0.5430    -2.4980 o          1 14X      -0.584800
     16 C2           0.0000     0.0010     2.3880 ca         1 14X      -0.184300
     17 C1          -0.7190     0.0080     3.7170 c3         1 14X       0.122300
     18 O            2.1380     0.0040     5.8060 o          1 14X      -0.726500
     19 N            0.1190     0.0020     4.9280 n          1 14X      -0.159800
     20 C           -0.4970     0.0080     6.2570 c3         1 14X       0.119300
     21 H1           1.9210    -0.0050    -0.9400 ha         1 14X       0.123000
     22 H2           3.1640     0.0000     1.1870 ha         1 14X       0.118000
     23 H4          -1.4100    -3.9040    -3.7950 hc         1 14X       0.021450
     24 H5          -3.1030    -2.2500    -2.2700 h1         1 14X       0.010700
     25 H6          -2.6050    -2.1660    -0.5610 h1         1 14X       0.010700
     26 H7          -1.2360    -4.1310    -0.7510 hc         1 14X       0.021450
     27 H8          -2.6090    -4.5490    -1.8220 hc         1 14X       0.021450
     28 H9           0.7500    -2.4670    -2.2870 h1         1 14X       0.010700
     29 H10         -0.1190    -1.9660    -3.7540 h1         1 14X       0.010700
     30 H11          3.0790     0.0030     3.5950 hn         1 14X       0.189500
     31 H12         -1.7770     0.0060     1.2020 ha         1 14X       0.125000
     32 H13         -1.3600    -0.8650     3.7520 h1         1 14X       0.015700
     33 H14         -1.3440     0.8920     3.7500 h1         1 14X       0.015700
     34 H15         -0.1810    -0.8720     6.8050 h1         1 14X       0.011700
     35 H16         -0.1900     0.8970     6.7930 h1         1 14X       0.011700
     36 H17         -1.5750     0.0020     6.1550 h1         1 14X       0.011700
     37 H3          -0.0790    -4.5720    -2.8080 hc         1 14X       0.021450
@<TRIPOS>BOND
     1     1     2 ar  
     2     1    12 ar  
     3     1    14 1   
     4     2     3 ar  
     5     2    21 1   
     6     3     5 ar  
     7     3    22 1   
     8     4     8 1   
     9     4     9 1   
    10     4    23 1   
    11     4    37 1   
    12     5    10 1   
    13     5    16 ar  
    14     6    10 1   
    15     6    18 2   
    16     6    19 1   
    17     7     8 1   
    18     7    11 1   
    19     7    24 1   
    20     7    25 1   
    21     8    26 1   
    22     8    27 1   
    23     9    11 1   
    24     9    28 1   
    25     9    29 1   
    26    10    30 1   
    27    11    14 1   
    28    12    16 ar  
    29    12    31 1   
    30    13    14 2   
    31    14    15 2   
    32    16    17 1   
    33    17    19 1   
    34    17    32 1   
    35    17    33 1   
    36    19    20 1   
    37    20    34 1   
    38    20    35 1   
    39    20    36 1   
@<TRIPOS>SUBSTRUCTURE
     1 14X         1 TEMP              0 ****  ****    0 ROOT
