@<TRIPOS>MOLECULE
14X
   37    39     1     0     0
SMALL
bcc


@<TRIPOS>ATOM
      1 C4           0.0270     0.2750     0.2630 ca         1 14X      -0.419500
      2 C5           1.4270     0.3030     0.2130 ca         1 14X       0.025000
      3 C6           2.1980     0.3080     1.3640 ca         1 14X      -0.215000
      4 C11         -0.6310     3.8710    -2.7590 c3         1 14X      -0.083400
      5 C7           1.5660     0.2820     2.6310 ca         1 14X       0.157600
      6 C8           1.6940     0.1810     5.0760 c          1 14X       0.812500
      7 C9          -2.0630     2.6840    -1.1650 c3         1 14X       0.231300
      8 C10         -1.9050     4.0070    -1.9330 c3         1 14X      -0.083400
      9 C12         -0.0770     2.4670    -2.4660 c3         1 14X       0.231300
     10 N1           2.3000     0.3070     3.8050 ns         1 14X      -0.467100
     11 N2          -1.0000     1.7930    -1.5760 n3         1 14X      -0.833500
     12 C3          -0.5930     0.2380     1.5170 ca         1 14X       0.028000
     13 O2          -0.1550    -0.4670    -2.1340 o          1 14X      -0.656300
     14 S           -0.8880     0.2350    -1.1520 sy         1 14X       1.528200
     15 O1          -2.1710    -0.2630    -0.8320 o          1 14X      -0.656300
     16 C2           0.1480     0.2420     2.6920 ca         1 14X      -0.185300
     17 C1          -0.5520     0.2130     4.0150 c3         1 14X       0.151300
     18 O            2.4380     0.1770     6.0830 o          1 14X      -0.652500
     19 N            0.3070     0.0200     5.1610 n          1 14X      -0.462800
     20 C           -0.3240     0.0860     6.4510 c3         1 14X       0.083300
     21 H1           1.9270     0.3050    -0.7730 ha         1 14X       0.152000
     22 H2           3.2950     0.3260     1.2900 ha         1 14X       0.146000
     23 H4          -0.8460     3.9820    -3.8500 hc         1 14X       0.053200
     24 H5          -3.0610     2.2100    -1.3810 h1         1 14X       0.046200
     25 H6          -1.9980     2.8700    -0.0560 h1         1 14X       0.046200
     26 H7          -2.7920     4.1800    -2.5910 hc         1 14X       0.053200
     27 H8          -1.8340     4.8630    -1.2190 hc         1 14X       0.053200
     28 H9           0.0360     1.8730    -3.4160 h1         1 14X       0.046200
     29 H10          0.9360     2.5410    -1.9790 h1         1 14X       0.046200
     30 H11          3.2950     0.3040     3.7780 hn         1 14X       0.349500
     31 H12         -1.6960     0.1880     1.5710 ha         1 14X       0.159000
     32 H13         -1.1290     1.1800     4.1370 h1         1 14X       0.052700
     33 H14         -1.3060    -0.6310     4.0150 h1         1 14X       0.052700
     34 H15         -0.7660     1.1040     6.6310 h1         1 14X       0.052367
     35 H16          0.4250    -0.1380     7.2560 h1         1 14X       0.052367
     36 H17         -1.1470    -0.6780     6.4850 h1         1 14X       0.052367
     37 H3           0.1180     4.6490    -2.4750 hc         1 14X       0.053200
@<TRIPOS>BOND
     1     1     2 ar  
     2     1    12 ar  
     3     1    14 1   
     4     2     3 ar  
     5     2    21 1   
     6     3     5 ar  
     7     3    22 1   
     8     4     8 1   
     9     4     9 1   
    10     4    23 1   
    11     4    37 1   
    12     5    10 1   
    13     5    16 ar  
    14     6    10 1   
    15     6    18 2   
    16     6    19 1   
    17     7     8 1   
    18     7    11 1   
    19     7    24 1   
    20     7    25 1   
    21     8    26 1   
    22     8    27 1   
    23     9    11 1   
    24     9    28 1   
    25     9    29 1   
    26    10    30 1   
    27    11    14 1   
    28    12    16 ar  
    29    12    31 1   
    30    13    14 2   
    31    14    15 2   
    32    16    17 1   
    33    17    19 1   
    34    17    32 1   
    35    17    33 1   
    36    19    20 1   
    37    20    34 1   
    38    20    35 1   
    39    20    36 1   
@<TRIPOS>SUBSTRUCTURE
     1 14X         1 TEMP              0 ****  ****    0 ROOT
