@<TRIPOS>MOLECULE
molecule
   37    39     1     0     0
SMALL
bcc


@<TRIPOS>ATOM
      1 C4           0.0000     0.0000     0.0000 ca         1 14X      -0.349500
      2 C5           1.3830     0.0000     0.0000 ca         1 14X       0.012000
      3 C6           2.0810     0.0000     1.1920 ca         1 14X      -0.204000
      4 C11         -0.8440    -3.8080    -2.8770 c3         1 14X      -0.093900
      5 C7           1.3910     0.0010     2.3960 ca         1 14X       0.136600
      6 C8           1.4580     0.0030     4.7990 c          1 14X       0.821500
      7 C9          -2.2910    -2.4040    -1.5700 c3         1 14X       0.240800
      8 C10         -1.7860    -3.8660    -1.6460 c3         1 14X      -0.093900
      9 C12         -0.2190    -2.4020    -2.7670 c3         1 14X       0.240800
     10 N1           2.0780     0.0020     3.6110 ns         1 14X      -0.464100
     11 N2          -1.1260    -1.5830    -1.9500 n3         1 14X      -0.831500
     12 C3          -0.6930     0.0060     1.2000 ca         1 14X       0.015000
     13 O2          -2.1640     0.5440    -1.2480 o          1 14X      -0.633300
     14 S           -0.8810    -0.0010    -1.5260 sy         1 14X       1.445200
     15 O1           0.0010     0.5430    -2.4980 o          1 14X      -0.633300
     16 C2           0.0000     0.0010     2.3880 ca         1 14X      -0.170300
     17 C1          -0.7190     0.0080     3.7170 c3         1 14X       0.155300
     18 O            2.1380     0.0040     5.8060 o          1 14X      -0.677500
     19 N            0.1190     0.0020     4.9280 n          1 14X      -0.497800
     20 C           -0.4970     0.0080     6.2570 c3         1 14X       0.131300
     21 H1           1.9210    -0.0050    -0.9400 ha         1 14X       0.154000
     22 H2           3.1640     0.0000     1.1870 ha         1 14X       0.142000
     23 H4          -1.4100    -3.9040    -3.7950 hc         1 14X       0.055200
     24 H5          -3.1030    -2.2500    -2.2700 h1         1 14X       0.047450
     25 H6          -2.6050    -2.1660    -0.5610 h1         1 14X       0.047450
     26 H7          -1.2360    -4.1310    -0.7510 hc         1 14X       0.055200
     27 H8          -2.6090    -4.5490    -1.8220 hc         1 14X       0.055200
     28 H9           0.7500    -2.4670    -2.2870 h1         1 14X       0.047450
     29 H10         -0.1190    -1.9660    -3.7540 h1         1 14X       0.047450
     30 H11          3.0790     0.0030     3.5950 hn         1 14X       0.353500
     31 H12         -1.7770     0.0060     1.2020 ha         1 14X       0.154000
     32 H13         -1.3600    -0.8650     3.7520 h1         1 14X       0.048700
     33 H14         -1.3440     0.8920     3.7500 h1         1 14X       0.048700
     34 H15         -0.1810    -0.8720     6.8050 h1         1 14X       0.046700
     35 H16         -0.1900     0.8970     6.7930 h1         1 14X       0.046700
     36 H17         -1.5750     0.0020     6.1550 h1         1 14X       0.046700
     37 H3          -0.0790    -4.5720    -2.8080 hc         1 14X       0.055200
@<TRIPOS>BOND
     1    20    19 1
     2    17    19 1
     3    17    16 1
     4    19     6 1
     5     6    18 2
     6     6    10 1
     7    16    12 ar
     8    16     5 ar
     9    12     1 ar
    10    10     5 1
    11     5     3 ar
    12    15    14 2
    13     1    14 1
    14     1     2 ar
    15     3     2 ar
    16    14    11 1
    17    14    13 2
    18     7    11 1
    19     7     8 1
    20    11     9 1
    21     8     4 1
    22     4     9 1
    23     2    21 1
    24     3    22 1
    25     4    37 1
    26     4    23 1
    27     7    24 1
    28     7    25 1
    29     8    26 1
    30     8    27 1
    31     9    28 1
    32     9    29 1
    33    10    30 1
    34    12    31 1
    35    17    32 1
    36    17    33 1
    37    20    34 1
    38    20    35 1
    39    20    36 1
@<TRIPOS>SUBSTRUCTURE
     1 14X         1 TEMP              0 ****  ****    0 ROOT
