@<TRIPOS>MOLECULE
molecule
   57    56     1     0     0
SMALL
bcc


@<TRIPOS>ATOM
      1 O2           0.0000     0.0000     0.0000 os         1 14Y      -0.432900
      2 C1           1.3430     0.0000     0.0000 c          1 14Y       0.628100
      3 O1           1.9470     0.0000     1.0470 o          1 14Y      -0.550000
      4 C2           2.0970     0.0020    -1.3040 c3         1 14Y      -0.126400
      5 C3           3.6010     0.0030    -1.0250 c3         1 14Y      -0.072400
      6 C4           4.3670     0.0040    -2.3500 c3         1 14Y      -0.084400
      7 C5           5.8710     0.0040    -2.0690 c3         1 14Y      -0.079400
      8 C6           6.6360     0.0060    -3.3940 c3         1 14Y      -0.083400
      9 C7           8.1400     0.0060    -3.1140 c3         1 14Y      -0.077400
     10 C8           8.9060     0.0080    -4.4390 c3         1 14Y      -0.047200
     11 C9          10.3870     0.0090    -4.1620 c2         1 14Y      -0.177200
     12 C10         11.1500    -0.9200    -4.6830 c2         1 14Y      -0.176200
     13 C11         12.6320    -0.9200    -4.4070 c3         1 14Y      -0.048200
     14 C12         13.0440    -2.2750    -3.8300 c3         1 14Y      -0.078400
     15 C13         14.5480    -2.2750    -3.5490 c3         1 14Y      -0.082400
     16 C14         14.9590    -3.6300    -2.9730 c3         1 14Y      -0.081400
     17 C15         16.4640    -3.6300    -2.6920 c3         1 14Y      -0.082400
     18 C16         16.8760    -4.9860    -2.1150 c3         1 14Y      -0.081400
     19 C17         18.3800    -4.9850    -1.8350 c3         1 14Y      -0.084400
     20 C18         18.7910    -6.3410    -1.2580 c3         1 14Y      -0.092100
     21 CA4         -0.6590    -0.0020     1.2930 c3         1 14Y       0.138700
     22 HA41        -0.3690     0.8820     1.8480 h1         1 14Y       0.048700
     23 HA42        -1.7330    -0.0020     1.1510 h1         1 14Y       0.048700
     24 HA43        -0.3680    -0.8870     1.8460 h1         1 14Y       0.048700
     25 H21C         1.8360    -0.8820    -1.8740 hc         1 14Y       0.071700
     26 H22C         1.8350     0.8870    -1.8720 hc         1 14Y       0.071700
     27 H31C         3.8620     0.8870    -0.4560 hc         1 14Y       0.058700
     28 H32C         3.8630    -0.8820    -0.4570 hc         1 14Y       0.058700
     29 H41C         4.1060    -0.8800    -2.9190 hc         1 14Y       0.040700
     30 H42C         4.1050     0.8890    -2.9170 hc         1 14Y       0.040700
     31 H51C         6.1320     0.8880    -1.5000 hc         1 14Y       0.044700
     32 H52C         6.1320    -0.8810    -1.5020 hc         1 14Y       0.044700
     33 H61C         6.3750    -0.8780    -3.9630 hc         1 14Y       0.040700
     34 H62C         6.3750     0.8910    -3.9610 hc         1 14Y       0.040700
     35 H71C         8.4020    -0.8790    -2.5470 hc         1 14Y       0.044200
     36 H72C         8.4010     0.8900    -2.5450 hc         1 14Y       0.044200
     37 H81C         8.6440     0.8930    -5.0060 hc         1 14Y       0.045700
     38 H82C         8.6450    -0.8760    -5.0080 hc         1 14Y       0.045700
     39 H9          10.8210     0.7770    -3.5330 ha         1 14Y       0.124000
     40 H10         10.7160    -1.6880    -5.3120 ha         1 14Y       0.124000
     41 H111        12.8670    -0.1380    -3.6950 hc         1 14Y       0.045700
     42 H112        13.1710    -0.7420    -5.3300 hc         1 14Y       0.045700
     43 H121        12.5050    -2.4530    -2.9070 hc         1 14Y       0.043200
     44 H122        12.8100    -3.0570    -4.5420 hc         1 14Y       0.043200
     45 H131        15.0870    -2.0960    -4.4720 hc         1 14Y       0.040700
     46 H132        14.7820    -1.4930    -2.8370 hc         1 14Y       0.040700
     47 H141        14.4200    -3.8090    -2.0500 hc         1 14Y       0.041200
     48 H142        14.7250    -4.4120    -3.6850 hc         1 14Y       0.041200
     49 H151        17.0030    -3.4520    -3.6150 hc         1 14Y       0.040700
     50 H152        16.6990    -2.8490    -1.9800 hc         1 14Y       0.040700
     51 H161        16.6420    -5.7680    -2.8280 hc         1 14Y       0.041200
     52 H162        16.3360    -5.1650    -1.1930 hc         1 14Y       0.041200
     53 H171        18.6140    -4.2030    -1.1220 hc         1 14Y       0.039700
     54 H172        18.9190    -4.8060    -2.7570 hc         1 14Y       0.039700
     55 H181        19.8560    -6.3400    -1.0590 hc         1 14Y       0.032367
     56 H182        18.5570    -7.1220    -1.9700 hc         1 14Y       0.032367
     57 H183        18.2520    -6.5200    -0.3350 hc         1 14Y       0.032367
@<TRIPOS>BOND
     1     1     2 1
     2     1    21 1
     3     2     3 2
     4     2     4 1
     5     4     5 1
     6     5     6 1
     7     6     7 1
     8     7     8 1
     9     8     9 1
    10     9    10 1
    11    10    11 1
    12    11    12 2
    13    12    13 1
    14    13    14 1
    15    14    15 1
    16    15    16 1
    17    16    17 1
    18    17    18 1
    19    18    19 1
    20    19    20 1
    21    21    22 1
    22    21    23 1
    23    21    24 1
    24     4    25 1
    25     4    26 1
    26     5    27 1
    27     5    28 1
    28     6    29 1
    29     6    30 1
    30     7    31 1
    31     7    32 1
    32     8    33 1
    33     8    34 1
    34     9    35 1
    35     9    36 1
    36    10    37 1
    37    10    38 1
    38    11    39 1
    39    12    40 1
    40    13    41 1
    41    13    42 1
    42    14    43 1
    43    14    44 1
    44    15    45 1
    45    15    46 1
    46    16    47 1
    47    16    48 1
    48    17    49 1
    49    17    50 1
    50    18    51 1
    51    18    52 1
    52    19    53 1
    53    19    54 1
    54    20    55 1
    55    20    56 1
    56    20    57 1
@<TRIPOS>SUBSTRUCTURE
     1 14Y         1 TEMP              0 ****  ****    0 ROOT
