@<TRIPOS>MOLECULE
14Y
   57    56     1     0     0
SMALL
bcc


@<TRIPOS>ATOM
      1 O2           0.6730     1.6840    -0.2590 os         1 14Y      -0.443900
      2 C1           1.6350     0.8710     0.2800 c          1 14Y       0.629100
      3 O1           1.3840     0.3060     1.3460 o          1 14Y      -0.541000
      4 C2           2.8820     0.8250    -0.5470 c3         1 14Y      -0.126400
      5 C3           3.4980    -0.5570    -0.5260 c3         1 14Y      -0.079400
      6 C4           4.8300    -0.5620    -1.2460 c3         1 14Y      -0.079400
      7 C5           5.4410    -1.9480    -1.2460 c3         1 14Y      -0.077400
      8 C6           6.7890    -1.9840    -1.9340 c3         1 14Y      -0.079400
      9 C7           6.6700    -1.9400    -3.4420 c3         1 14Y      -0.076400
     10 C8           8.0360    -2.0030    -4.0980 c3         1 14Y      -0.048200
     11 C9           7.9330    -1.9420    -5.5760 c2         1 14Y      -0.172200
     12 C10          8.6170    -2.7420    -6.3990 c2         1 14Y      -0.169200
     13 C11          8.5470    -2.6520    -7.8770 c3         1 14Y      -0.048200
     14 C12          8.4170    -4.0220    -8.5130 c3         1 14Y      -0.076400
     15 C13          8.3620    -3.9190   -10.0220 c3         1 14Y      -0.079400
     16 C14          8.2350    -5.2860   -10.6610 c3         1 14Y      -0.079400
     17 C15          8.1780    -5.1840   -12.1700 c3         1 14Y      -0.079400
     18 C16          8.0510    -6.5510   -12.8080 c3         1 14Y      -0.079400
     19 C17          7.9930    -6.4500   -14.3180 c3         1 14Y      -0.080400
     20 C18          7.8670    -7.8090   -14.9580 c3         1 14Y      -0.092100
     21 CA4         -0.5450     1.8130     0.4730 c3         1 14Y       0.125700
     22 HA41        -0.3390     2.2410     1.4830 h1         1 14Y       0.050367
     23 HA42        -1.1580     2.5090    -0.1510 h1         1 14Y       0.050367
     24 HA43        -1.0360     0.8150     0.5740 h1         1 14Y       0.050367
     25 H21C         3.5960     1.5780    -0.1170 hc         1 14Y       0.078200
     26 H22C         2.6480     1.1370    -1.5990 hc         1 14Y       0.078200
     27 H31C         2.8000    -1.2880    -1.0140 hc         1 14Y       0.057700
     28 H32C         3.6340    -0.8890     0.5380 hc         1 14Y       0.057700
     29 H41C         5.5300     0.1580    -0.7470 hc         1 14Y       0.041700
     30 H42C         4.6880    -0.2100    -2.3020 hc         1 14Y       0.041700
     31 H51C         4.7410    -2.6660    -1.7490 hc         1 14Y       0.043200
     32 H52C         5.5630    -2.2930    -0.1850 hc         1 14Y       0.043200
     33 H61C         7.3230    -2.9250    -1.6360 hc         1 14Y       0.040700
     34 H62C         7.4160    -1.1220    -1.5810 hc         1 14Y       0.040700
     35 H71C         6.0440    -2.8010    -3.7970 hc         1 14Y       0.042200
     36 H72C         6.1460    -0.9990    -3.7550 hc         1 14Y       0.042200
     37 H81C         8.6580    -1.1350    -3.7440 hc         1 14Y       0.045200
     38 H82C         8.5640    -2.9390    -3.7750 hc         1 14Y       0.045200
     39 H9           7.2500    -1.1690    -5.9680 ha         1 14Y       0.120000
     40 H10          9.2930    -3.5210    -6.0070 ha         1 14Y       0.120000
     41 H111         7.6850    -2.0080    -8.1960 hc         1 14Y       0.045700
     42 H112         9.4850    -2.1560    -8.2520 hc         1 14Y       0.045700
     43 H121         9.2870    -4.6620    -8.2100 hc         1 14Y       0.041700
     44 H122         7.4880    -4.5240    -8.1350 hc         1 14Y       0.041700
     45 H131         9.2900    -3.4130   -10.3990 hc         1 14Y       0.039700
     46 H132         7.4910    -3.2800   -10.3250 hc         1 14Y       0.039700
     47 H141         7.3080    -5.7930   -10.2830 hc         1 14Y       0.039700
     48 H142         9.1060    -5.9250   -10.3590 hc         1 14Y       0.039700
     49 H151         9.1050    -4.6770   -12.5480 hc         1 14Y       0.039700
     50 H152         7.3060    -4.5460   -12.4710 hc         1 14Y       0.039700
     51 H161         7.1240    -7.0580   -12.4300 hc         1 14Y       0.039700
     52 H162         8.9230    -7.1890   -12.5080 hc         1 14Y       0.039700
     53 H171         8.9200    -5.9410   -14.6940 hc         1 14Y       0.038700
     54 H172         7.1210    -5.8100   -14.6170 hc         1 14Y       0.038700
     55 H181         7.8260    -7.7120   -16.0700 hc         1 14Y       0.032700
     56 H182         8.7400    -8.4530   -14.6920 hc         1 14Y       0.032700
     57 H183         6.9360    -8.3220   -14.6140 hc         1 14Y       0.032700
@<TRIPOS>BOND
     1     1     2 1   
     2     1    21 1   
     3     2     3 2   
     4     2     4 1   
     5     4     5 1   
     6     4    25 1   
     7     4    26 1   
     8     5     6 1   
     9     5    27 1   
    10     5    28 1   
    11     6     7 1   
    12     6    29 1   
    13     6    30 1   
    14     7     8 1   
    15     7    31 1   
    16     7    32 1   
    17     8     9 1   
    18     8    33 1   
    19     8    34 1   
    20     9    10 1   
    21     9    35 1   
    22     9    36 1   
    23    10    11 1   
    24    10    37 1   
    25    10    38 1   
    26    11    12 2   
    27    11    39 1   
    28    12    13 1   
    29    12    40 1   
    30    13    14 1   
    31    13    41 1   
    32    13    42 1   
    33    14    15 1   
    34    14    43 1   
    35    14    44 1   
    36    15    16 1   
    37    15    45 1   
    38    15    46 1   
    39    16    17 1   
    40    16    47 1   
    41    16    48 1   
    42    17    18 1   
    43    17    49 1   
    44    17    50 1   
    45    18    19 1   
    46    18    51 1   
    47    18    52 1   
    48    19    20 1   
    49    19    53 1   
    50    19    54 1   
    51    20    55 1   
    52    20    56 1   
    53    20    57 1   
    54    21    22 1   
    55    21    23 1   
    56    21    24 1   
@<TRIPOS>SUBSTRUCTURE
     1 14Y         1 TEMP              0 ****  ****    0 ROOT
