@<TRIPOS>MOLECULE
14Y
   57    56     1     0     0
SMALL
bcc


@<TRIPOS>ATOM
      1 O2          0.3940    1.8570   -2.8810 os        1 14Y     -0.443900
      2 C1          1.0440    0.9450   -2.0920 c         1 14Y      0.629100
      3 O1          0.4410    0.4870   -1.1200 o         1 14Y     -0.541000
      4 C2          2.4240    0.6380   -2.5830 c3        1 14Y     -0.126400
      5 C3          3.3740    0.4100   -1.4260 c3        1 14Y     -0.079400
      6 C4          4.7310   -0.0350   -1.9270 c3        1 14Y     -0.078400
      7 C5          5.6920   -0.2470   -0.7760 c3        1 14Y     -0.079400
      8 C6          7.0490   -0.7000   -1.2720 c3        1 14Y     -0.080400
      9 C7          8.0120   -0.9060   -0.1230 c3        1 14Y     -0.075400
     10 C8          9.3690   -1.3860   -0.5960 c3        1 14Y     -0.048200
     11 C9          9.3530   -2.7810   -1.0950 c2        1 14Y     -0.174200
     12 C10        10.4020   -3.3750   -1.6740 c2        1 14Y     -0.174200
     13 C11        11.7060   -2.7070   -1.8990 c3        1 14Y     -0.049200
     14 C12        12.7500   -3.6570   -2.4500 c3        1 14Y     -0.077400
     15 C13        14.0710   -2.9500   -2.6660 c3        1 14Y     -0.079400
     16 C14        15.1170   -3.8970   -3.2150 c3        1 14Y     -0.079400
     17 C15        16.4380   -3.1910   -3.4300 c3        1 14Y     -0.079400
     18 C16        17.4840   -4.1380   -3.9790 c3        1 14Y     -0.079400
     19 C17        18.8070   -3.4340   -4.1940 c3        1 14Y     -0.080400
     20 C18        19.8510   -4.3730   -4.7400 c3        1 14Y     -0.092100
     21 CA4        -0.9420    2.1940   -2.5070 c3        1 14Y      0.125700
     22 HA41       -1.2550    2.9370   -3.2820 h1        1 14Y      0.050367
     23 HA42       -1.5860    1.2820   -2.5310 h1        1 14Y      0.050367
     24 HA43       -0.9500    2.6410   -1.4840 h1        1 14Y      0.050367
     25 H21C        2.7870    1.4760   -3.2340 hc        1 14Y      0.078200
     26 H22C        2.3550   -0.2860   -3.2190 hc        1 14Y      0.078200
     27 H31C        2.9450   -0.3650   -0.7370 hc        1 14Y      0.057700
     28 H32C        3.4800    1.3570   -0.8350 hc        1 14Y      0.057700
     29 H41C        5.1470    0.7350   -2.6280 hc        1 14Y      0.041200
     30 H42C        4.6250   -0.9890   -2.5080 hc        1 14Y      0.041200
     31 H51C        5.2730   -1.0140   -0.0730 hc        1 14Y      0.042700
     32 H52C        5.8020    0.7070   -0.1970 hc        1 14Y      0.042700
     33 H61C        7.4650    0.0650   -1.9800 hc        1 14Y      0.041700
     34 H62C        6.9410   -1.6580   -1.8470 hc        1 14Y      0.041700
     35 H71C        8.1420    0.0630    0.4290 hc        1 14Y      0.041200
     36 H72C        7.5810   -1.6460    0.6010 hc        1 14Y      0.041200
     37 H81C        9.7480   -0.7020   -1.4050 hc        1 14Y      0.047700
     38 H82C       10.1000   -1.3140    0.2570 hc        1 14Y      0.047700
     39 H9          8.4080   -3.3320   -0.9580 ha        1 14Y      0.122000
     40 H10        10.3300   -4.4200   -2.0180 ha        1 14Y      0.122000
     41 H111       11.5650   -1.8490   -2.6130 hc        1 14Y      0.047200
     42 H112       12.0730   -2.2640   -0.9330 hc        1 14Y      0.047200
     43 H121       12.8920   -4.5130   -1.7390 hc        1 14Y      0.041200
     44 H122       12.3910   -4.0890   -3.4210 hc        1 14Y      0.041200
     45 H131       13.9290   -2.0940   -3.3760 hc        1 14Y      0.039700
     46 H132       14.4300   -2.5180   -1.6940 hc        1 14Y      0.039700
     47 H141       14.7590   -4.3290   -4.1870 hc        1 14Y      0.039700
     48 H142       15.2590   -4.7540   -2.5050 hc        1 14Y      0.039700
     49 H151       16.7960   -2.7590   -2.4590 hc        1 14Y      0.039700
     50 H152       16.2960   -2.3350   -4.1410 hc        1 14Y      0.039700
     51 H161       17.6260   -4.9950   -3.2680 hc        1 14Y      0.039700
     52 H162       17.1270   -4.5710   -4.9500 hc        1 14Y      0.039700
     53 H171       19.1610   -3.0000   -3.2210 hc        1 14Y      0.038700
     54 H172       18.6630   -2.5770   -4.9040 hc        1 14Y      0.038700
     55 H181       20.8170   -3.8340   -4.8910 hc        1 14Y      0.032700
     56 H182       20.0270   -5.2210   -4.0340 hc        1 14Y      0.032700
     57 H183       19.5260   -4.7960   -5.7210 hc        1 14Y      0.032700
@<TRIPOS>BOND
     1    1    2 1   
     2    1   21 1   
     3    2    3 2   
     4    2    4 1   
     5    4    5 1   
     6    4   25 1   
     7    4   26 1   
     8    5    6 1   
     9    5   27 1   
    10    5   28 1   
    11    6    7 1   
    12    6   29 1   
    13    6   30 1   
    14    7    8 1   
    15    7   31 1   
    16    7   32 1   
    17    8    9 1   
    18    8   33 1   
    19    8   34 1   
    20    9   10 1   
    21    9   35 1   
    22    9   36 1   
    23   10   11 1   
    24   10   37 1   
    25   10   38 1   
    26   11   12 2   
    27   11   39 1   
    28   12   13 1   
    29   12   40 1   
    30   13   14 1   
    31   13   41 1   
    32   13   42 1   
    33   14   15 1   
    34   14   43 1   
    35   14   44 1   
    36   15   16 1   
    37   15   45 1   
    38   15   46 1   
    39   16   17 1   
    40   16   47 1   
    41   16   48 1   
    42   17   18 1   
    43   17   49 1   
    44   17   50 1   
    45   18   19 1   
    46   18   51 1   
    47   18   52 1   
    48   19   20 1   
    49   19   53 1   
    50   19   54 1   
    51   20   55 1   
    52   20   56 1   
    53   20   57 1   
    54   21   22 1   
    55   21   23 1   
    56   21   24 1   
@<TRIPOS>SUBSTRUCTURE
     1 14Y         1 TEMP              0 ****  ****    0 ROOT
