@<TRIPOS>MOLECULE
14Z
   33    34     1     0     0
SMALL
bcc


@<TRIPOS>ATOM
      1 CAO          0.0000     0.0000     0.0000 c3         1 14Z      -0.004100
      2 CAN          1.5300     0.0000     0.0000 c3         1 14Z       0.226800
      3 NAM          2.0180     0.0000     1.3820 n7         1 14Z      -0.586100
      4 SAP          3.6000    -0.3720     1.7010 sy         1 14Z       1.045200
      5 OAQ          3.7640    -0.2530     3.1070 o          1 14Z      -0.588800
      6 OAR          3.8840    -1.5660     0.9830 o          1 14Z      -0.588800
      7 CAA          4.5890     0.8920     0.9740 ca         1 14Z      -0.194500
      8 CAF          4.9200     2.0190     1.7080 ca         1 14Z       0.052000
      9 CAE          5.6940     3.0030     1.1360 ca         1 14Z      -0.183300
     10 CAJ          6.0760     4.2460     1.9040 c3         1 14Z       0.122300
     11 NAI          6.9060     5.2370     1.1970 n          1 14Z      -0.159800
     12 CAL          7.3220     6.4710     1.8680 c3         1 14Z       0.119300
     13 CAH          7.2780     4.9940    -0.0730 c          1 14Z       0.611500
     14 OAK          7.9640     5.8190    -0.6440 o          1 14Z      -0.726500
     15 NAG          6.9290     3.8840    -0.7370 ns         1 14Z      -0.017100
     16 CAD          6.1460     2.8760    -0.1720 ca         1 14Z      -0.015400
     17 CAC          5.8120     1.7440    -0.9030 ca         1 14Z      -0.184000
     18 CAB          5.0400     0.7560    -0.3250 ca         1 14Z       0.044000
     19 H1          -0.3610     0.9000     0.4830 hc         1 14Z       0.007700
     20 H2          -0.3610    -0.0310    -1.0210 hc         1 14Z       0.007700
     21 H3          -0.3610    -0.8680     0.5380 hc         1 14Z       0.007700
     22 H4           1.8910     0.8850    -0.5110 h1         1 14Z       0.011700
     23 H5           1.8910    -0.8850    -0.5110 h1         1 14Z       0.011700
     24 H6           1.3880     0.1950     2.1350 hn         1 14Z       0.351800
     25 H7           4.6540     2.0800     2.7570 ha         1 14Z       0.128000
     26 H8           5.1620     4.7390     2.2130 h1         1 14Z       0.016200
     27 H9           6.6130     3.9360     2.7920 h1         1 14Z       0.016200
     28 H10          6.9260     6.4850     2.8760 h1         1 14Z       0.012033
     29 H11          8.4040     6.5150     1.9040 h1         1 14Z       0.012033
     30 H12          6.9440     7.3250     1.3200 h1         1 14Z       0.012033
     31 H13          7.2440     3.7730    -1.6800 hn         1 14Z       0.189500
     32 H14          6.1630     1.6330    -1.9220 ha         1 14Z       0.118000
     33 H15          4.7910    -0.1330    -0.8910 ha         1 14Z       0.123000
@<TRIPOS>BOND
     1     1     2 1   
     2     1    19 1   
     3     1    20 1   
     4     1    21 1   
     5     2     3 1   
     6     2    22 1   
     7     2    23 1   
     8     3     4 1   
     9     3    24 1   
    10     4     5 2   
    11     4     6 2   
    12     4     7 1   
    13     7     8 ar  
    14     7    18 ar  
    15     8     9 ar  
    16     8    25 1   
    17     9    10 1   
    18     9    16 ar  
    19    10    11 1   
    20    10    26 1   
    21    10    27 1   
    22    11    12 1   
    23    11    13 1   
    24    12    28 1   
    25    12    29 1   
    26    12    30 1   
    27    13    14 2   
    28    13    15 1   
    29    15    16 1   
    30    15    31 1   
    31    16    17 ar  
    32    17    18 ar  
    33    17    32 1   
    34    18    33 1   
@<TRIPOS>SUBSTRUCTURE
     1 14Z         1 TEMP              0 ****  ****    0 ROOT
