@<TRIPOS>MOLECULE
14Z
   34    35     1     0     0
SMALL
bcc


@<TRIPOS>ATOM
      1 CAO         -0.1650     1.1670     0.2360 c3         1 14Z      -0.130100
      2 CAN          1.3080     1.0800     0.5740 c3         1 14Z       0.104800
      3 NAM          1.7670    -0.2810     0.9340 ny         1 14Z      -0.694900
      4 SAP          3.6800    -0.3450     1.2810 sy         1 14Z       1.508200
      5 OAQ          3.6630    -0.1530     2.6480 o          1 14Z      -0.580300
      6 OAR          4.1400     0.6340     0.4220 o          1 14Z      -0.580300
      7 CAA          3.9200    -1.8300     0.8040 ca         1 14Z      -0.637500
      8 CAF          4.3300    -2.1250    -0.5230 ca         1 14Z       0.053000
      9 CAE          4.6120    -3.4040    -0.9360 ca         1 14Z      -0.186300
     10 CAJ          5.0960    -3.6590    -2.3330 c3         1 14Z       0.138300
     11 NAI          5.0810    -5.0470    -2.7410 n          1 14Z      -0.448800
     12 CAL          5.5850    -5.3260    -4.0640 c3         1 14Z       0.072300
     13 CAH          5.0710    -6.0780    -1.8020 c          1 14Z       0.800500
     14 OAK          5.2590    -7.2770    -2.0720 o          1 14Z      -0.581500
     15 NAG          4.7450    -5.7680    -0.4370 ns         1 14Z      -0.431100
     16 CAD          4.4850    -4.5010    -0.0180 ca         1 14Z       0.233600
     17 CAC          4.0890    -4.2140     1.3260 ca         1 14Z      -0.224000
     18 CAB          3.8250    -2.9240     1.7060 ca         1 14Z       0.057000
     19 H1          -0.8030     0.8620     1.1000 hc         1 14Z       0.072033
     20 H2          -0.4060     2.2310    -0.0180 hc         1 14Z       0.072033
     21 H3          -0.4220     0.5310    -0.6460 hc         1 14Z       0.072033
     22 H4           1.5370     1.7560     1.4490 hx         1 14Z       0.106700
     23 H5           1.9250     1.4250    -0.3090 hx         1 14Z       0.106700
     24 H6           1.2670    -0.5790     1.7700 hn         1 14Z       0.437300
     25 H7           4.4460    -1.2870    -1.2390 ha         1 14Z       0.166000
     26 H8           4.4440    -3.0930    -3.0640 h1         1 14Z       0.070200
     27 H9           6.1470    -3.2460    -2.4250 h1         1 14Z       0.070200
     28 H10          4.9760    -4.7380    -4.8030 h1         1 14Z       0.068033
     29 H11          6.6650    -5.0290    -4.1540 h1         1 14Z       0.068033
     30 H12          5.4830    -6.4220    -4.2870 h1         1 14Z       0.068033
     31 H13          4.6810    -6.5460     0.1890 hn         1 14Z       0.369500
     32 H14          4.0070    -5.0340     2.0590 ha         1 14Z       0.175000
     33 H15          3.5430    -2.7170     2.7580 ha         1 14Z       0.167000
     34 HAM2         1.5150    -0.9240     0.1890 hn         1 14Z       0.437300
@<TRIPOS>BOND
     1     1     2 1   
     2     1    19 1   
     3     1    20 1   
     4     1    21 1   
     5     2     3 1   
     6     2    22 1   
     7     2    23 1   
     8     3     4 1   
     9     3    24 1   
    10     3    34 1   
    11     4     5 2   
    12     4     6 2   
    13     4     7 1   
    14     7     8 ar  
    15     7    18 ar  
    16     8     9 ar  
    17     8    25 1   
    18     9    10 1   
    19     9    16 ar  
    20    10    11 1   
    21    10    26 1   
    22    10    27 1   
    23    11    12 1   
    24    11    13 1   
    25    12    28 1   
    26    12    29 1   
    27    12    30 1   
    28    13    14 2   
    29    13    15 1   
    30    15    16 1   
    31    15    31 1   
    32    16    17 ar  
    33    17    18 ar  
    34    17    32 1   
    35    18    33 1   
@<TRIPOS>SUBSTRUCTURE
     1 14Z         1 TEMP              0 ****  ****    0 ROOT
