@<TRIPOS>MOLECULE
molecule
   33    34     1     0     0
SMALL
bcc


@<TRIPOS>ATOM
      1 CAO          0.0000     0.0000     0.0000 c3         1 14Z      -0.101100
      2 CAN          1.5300     0.0000     0.0000 c3         1 14Z       0.229800
      3 NAM          2.0180     0.0000     1.3820 n7         1 14Z      -0.917100
      4 SAP          3.6000    -0.3720     1.7010 sy         1 14Z       1.428200
      5 OAQ          3.7640    -0.2530     3.1070 o          1 14Z      -0.637300
      6 OAR          3.8840    -1.5660     0.9830 o          1 14Z      -0.637300
      7 CAA          4.5890     0.8920     0.9740 ca         1 14Z      -0.348500
      8 CAF          4.9200     2.0190     1.7080 ca         1 14Z       0.015000
      9 CAE          5.6940     3.0030     1.1360 ca         1 14Z      -0.170300
     10 CAJ          6.0760     4.2460     1.9040 c3         1 14Z       0.154300
     11 NAI          6.9060     5.2370     1.1970 n          1 14Z      -0.497800
     12 CAL          7.3220     6.4710     1.8680 c3         1 14Z       0.131300
     13 CAH          7.2780     4.9940    -0.0730 c          1 14Z       0.820500
     14 OAK          7.9640     5.8190    -0.6440 o          1 14Z      -0.676500
     15 NAG          6.9290     3.8840    -0.7370 ns         1 14Z      -0.464100
     16 CAD          6.1460     2.8760    -0.1720 ca         1 14Z       0.136600
     17 CAC          5.8120     1.7440    -0.9030 ca         1 14Z      -0.204000
     18 CAB          5.0400     0.7560    -0.3250 ca         1 14Z       0.008000
     19 H1          -0.3610     0.9000     0.4830 hc         1 14Z       0.044033
     20 H2          -0.3610    -0.0310    -1.0210 hc         1 14Z       0.044033
     21 H3          -0.3610    -0.8680     0.5380 hc         1 14Z       0.044033
     22 H4           1.8910     0.8850    -0.5110 h1         1 14Z       0.046200
     23 H5           1.8910    -0.8850    -0.5110 h1         1 14Z       0.046200
     24 H6           1.3880     0.1950     2.1350 hn         1 14Z       0.456800
     25 H7           4.6540     2.0800     2.7570 ha         1 14Z       0.158000
     26 H8           5.1620     4.7390     2.2130 h1         1 14Z       0.049200
     27 H9           6.6130     3.9360     2.7920 h1         1 14Z       0.049200
     28 H10          6.9260     6.4850     2.8760 h1         1 14Z       0.047033
     29 H11          8.4040     6.5150     1.9040 h1         1 14Z       0.047033
     30 H12          6.9440     7.3250     1.3200 h1         1 14Z       0.047033
     31 H13          7.2440     3.7730    -1.6800 hn         1 14Z       0.353500
     32 H14          6.1630     1.6330    -1.9220 ha         1 14Z       0.142000
     33 H15          4.7910    -0.1330    -0.8910 ha         1 14Z       0.154000
@<TRIPOS>BOND
     1     1     2 1   
     2     3     2 1   
     3     3     4 1   
     4     5     4 2   
     5    18    17 ar  
     6    18     7 ar  
     7     4     7 1   
     8     4     6 2   
     9    17    16 ar  
    10     7     8 ar  
    11    16    15 1   
    12    16     9 ar  
    13     8     9 ar  
    14    15    13 1   
    15     9    10 1   
    16    13    14 2   
    17    13    11 1   
    18    10    11 1   
    19    11    12 1   
    20     1    19 1   
    21     1    20 1   
    22     1    21 1   
    23     2    22 1   
    24     2    23 1   
    25     3    24 1   
    26     8    25 1   
    27    10    26 1   
    28    10    27 1   
    29    12    28 1   
    30    12    29 1   
    31    12    30 1   
    32    15    31 1   
    33    17    32 1   
    34    18    33 1   
@<TRIPOS>SUBSTRUCTURE
     1 14Z         1 TEMP              0 ****  ****    0 ROOT
