@<TRIPOS>MOLECULE
150
   22    22     1     0     0
SMALL
bcc


@<TRIPOS>ATOM
      1 N1          -0.0710     0.0260    -0.0050 nv         1 150      -0.802200
      2 N2           1.3290    -0.0450     2.5110 nv         1 150      -0.802200
      3 C1           1.3380     0.0570     0.0420 ca         1 150       0.080600
      4 C2           2.0330    -0.0580     1.2890 ca         1 150       0.080600
      5 C3           3.4390    -0.0970     1.2740 ca         1 150      -0.157000
      6 C4           4.1660    -0.0310     0.0860 ca         1 150      -0.079300
      7 C5           3.4850     0.0670    -1.1370 ca         1 150      -0.079300
      8 C6           2.0920     0.1150    -1.1450 ca         1 150      -0.157000
      9 C7           5.6470    -0.0710     0.1180 c3         1 150      -0.047800
     10 C8           4.2390     0.1260    -2.4110 c3         1 150      -0.047800
     11 HN11        -0.4930     0.6100     0.6880 hn         1 150       0.376800
     12 HN12        -0.4240     0.2410    -0.9150 hn         1 150       0.376800
     13 HN21         0.5250    -0.6400     2.4990 hn         1 150       0.376800
     14 HN22         1.9180    -0.2580     3.2890 hn         1 150       0.376800
     15 H3           3.9890    -0.1780     2.2260 ha         1 150       0.128000
     16 H6           1.5720     0.1960    -2.1140 ha         1 150       0.128000
     17 H71          6.0240    -0.9410    -0.4770 hc         1 150       0.041367
     18 H72          6.0680     0.8640    -0.3310 hc         1 150       0.041367
     19 H73          6.0320    -0.1640     1.1630 hc         1 150       0.041367
     20 H81          4.8550    -0.8000    -2.5380 hc         1 150       0.041367
     21 H82          4.9310     1.0050    -2.4110 hc         1 150       0.041367
     22 H83          3.5530     0.2160    -3.2880 hc         1 150       0.041367
@<TRIPOS>BOND
     1     1     3 1   
     2     1    11 1   
     3     1    12 1   
     4     2     4 1   
     5     2    13 1   
     6     2    14 1   
     7     3     4 ar  
     8     3     8 ar  
     9     4     5 ar  
    10     5     6 ar  
    11     5    15 1   
    12     6     7 ar  
    13     6     9 1   
    14     7     8 ar  
    15     7    10 1   
    16     8    16 1   
    17     9    17 1   
    18     9    18 1   
    19     9    19 1   
    20    10    20 1   
    21    10    21 1   
    22    10    22 1   
@<TRIPOS>SUBSTRUCTURE
     1 150         1 TEMP              0 ****  ****    0 ROOT
