@<TRIPOS>MOLECULE
molecule
   22    22     1     0     0
SMALL
bcc


@<TRIPOS>ATOM
      1 N1           0.0000     0.0000     0.0000 nv         1 150      -0.982200
      2 N2           1.4030    -0.0010     2.4210 nv         1 150      -0.982200
      3 C1           1.4000     0.0000     0.0000 ca         1 150       0.147600
      4 C2           2.0990     0.0000     1.2060 ca         1 150       0.147600
      5 C3           3.4840     0.0010     1.1990 ca         1 150      -0.139000
      6 C4           4.1700     0.0020    -0.0020 ca         1 150      -0.087300
      7 C5           3.4770     0.0070    -1.1970 ca         1 150      -0.087300
      8 C6           2.0940     0.0010    -1.1990 ca         1 150      -0.139000
      9 C7           5.6770     0.0030    -0.0070 c3         1 150      -0.044800
     10 C8           4.2310     0.0070    -2.5020 c3         1 150      -0.044800
     11 HN11        -0.5000    -0.8670    -0.0200 hn         1 150       0.424550
     12 HN12        -0.5000     0.8670    -0.0180 hn         1 150       0.424550
     13 HN21         1.1710     0.8650     2.8650 hn         1 150       0.424550
     14 HN22         1.1710    -0.8680     2.8630 hn         1 150       0.424550
     15 H3           4.0300    -0.0030     2.1350 ha         1 150       0.134000
     16 H6           1.5540     0.0050    -2.1380 ha         1 150       0.134000
     17 H71          6.0360     0.8900    -0.5160 hc         1 150       0.041033
     18 H72          6.0370    -0.8790    -0.5220 hc         1 150       0.041033
     19 H73          6.0420    -0.0000     1.0130 hc         1 150       0.041033
     20 H81          4.8510    -0.8790    -2.5610 hc         1 150       0.041033
     21 H82          3.5270     0.0110    -3.3260 hc         1 150       0.041033
     22 H83          4.8560     0.8900    -2.5580 hc         1 150       0.041033
@<TRIPOS>BOND
     1     1     3 1   
     2     1    11 1   
     3     1    12 1   
     4     2     4 1   
     5     2    13 1   
     6     2    14 1   
     7     3     4 ar  
     8     3     8 ar  
     9     4     5 ar  
    10     5     6 ar  
    11     5    15 1   
    12     6     7 ar  
    13     6     9 1   
    14     7     8 ar  
    15     7    10 1   
    16     8    16 1   
    17     9    17 1   
    18     9    18 1   
    19     9    19 1   
    20    10    20 1   
    21    10    21 1   
    22    10    22 1   
@<TRIPOS>SUBSTRUCTURE
     1 150         1 TEMP              0 ****  ****    0 ROOT
