@<TRIPOS>MOLECULE
151
   60    62     1     0     0
SMALL
bcc


@<TRIPOS>ATOM
      1 O3          0.3460   -0.1570    0.2970 o         1 151     -0.630100
      2 C2          1.5880    0.0120    0.2660 c         1 151      0.615600
      3 N1          2.3030    0.0720    1.4480 n         1 151     -0.454800
      4 C26         3.6310    0.6370    1.5970 c3        1 151      0.100000
      5 C28         3.7630    1.1320    3.0420 c3        1 151     -0.119400
      6 C29         2.6260    0.4360    3.8280 c3        1 151      0.229500
      7 N2          2.0390    1.2260    4.8710 n3        1 151     -0.921100
      8 S1          2.6330    1.3610    6.3720 s6        1 151      1.469900
      9 C3          2.3580   -0.1850    7.0370 c3        1 151     -0.370300
     10 O1          4.0220    1.5730    6.3600 o         1 151     -0.649300
     11 O2          1.8450    2.2960    7.0720 o         1 151     -0.649300
     12 C8          1.6000   -0.0200    2.7250 c3        1 151      0.109700
     13 C7          1.0000   -1.4220    2.9800 c3        1 151     -0.167700
     14 C27        -0.0930   -1.3990    4.0500 c3        1 151     -0.061700
     15 C1         -1.2190   -0.4560    3.6670 c3        1 151     -0.103600
     16 C17        -0.6560   -2.7950    4.2510 c3        1 151     -0.103600
     17 C30         2.0810   -2.4370    3.2490 c         1 151      0.626100
     18 O5          2.6990   -3.0790    2.4010 o         1 151     -0.473000
     19 C4          2.2690    0.0950   -1.0390 cc        1 151      0.173500
     20 N3          3.6580    0.0530   -1.2780 nc        1 151     -0.648000
     21 C5          3.8000    0.1040   -2.5990 cd        1 151      0.494700
     22 O4          2.5550    0.1780   -3.2660 os        1 151     -0.365800
     23 C6          1.6020    0.1680   -2.2640 cd        1 151      0.241300
     24 C9          5.0120    0.1010   -3.4780 c3        1 151      0.146500
     25 N4          5.3890   -1.2440   -3.8770 n3        1 151     -0.719600
     26 C11         6.3430   -1.2690   -4.9910 c3        1 151      0.153300
     27 C13         7.5970   -2.0560   -4.5770 c3        1 151     -0.096900
     28 C14         7.3340   -2.5590   -3.1640 c3        1 151     -0.096900
     29 C12         5.9230   -2.0750   -2.7940 c3        1 151      0.153300
     30 O51         2.4930   -2.7240    4.5270 oh        1 151     -0.597100
     31 H261        3.7860    1.4910    0.8830 h1        1 151      0.068200
     32 H262        4.3970   -0.1580    1.3770 h1        1 151      0.068200
     33 H281        3.6680    2.2460    3.0800 hc        1 151      0.072200
     34 H282        4.7570    0.8580    3.4710 hc        1 151      0.072200
     35 H29         3.0670   -0.4870    4.3120 h1        1 151      0.062700
     36 H2          1.2660    1.7790    4.5790 hn        1 151      0.454800
     37 H3C1        1.2980   -0.5250    6.9710 h1        1 151      0.116367
     38 H3C2        2.9940   -0.9840    6.5810 h1        1 151      0.116367
     39 H3C3        2.6110   -0.1790    8.1280 h1        1 151      0.116367
     40 H8          0.7230    0.6970    2.6830 h1        1 151      0.075700
     41 H7          0.5000   -1.7490    2.0140 hc        1 151      0.126700
     42 H27         0.3480   -1.0410    5.0230 hc        1 151      0.030700
     43 H1C1       -1.4360   -0.5210    2.5720 hc        1 151      0.047033
     44 H1C2       -0.9540    0.6000    3.9160 hc        1 151      0.047033
     45 H1C3       -2.1480   -0.7180    4.2310 hc        1 151      0.047033
     46 H171        0.1520   -3.5290    4.4900 hc        1 151      0.047033
     47 H172       -1.1790   -3.1380    3.3250 hc        1 151      0.047033
     48 H173       -1.3910   -2.7930    5.0910 hc        1 151      0.047033
     49 H6          0.5610    0.2100   -2.5740 h4        1 151      0.084100
     50 H9C1        5.8320    0.6500   -2.9290 h1        1 151      0.064200
     51 H9C2        4.7510    0.6840   -4.4090 h1        1 151      0.064200
     52 H111        5.8240   -1.7840   -5.8450 h1        1 151      0.053700
     53 H112        6.6280   -0.2380   -5.3340 h1        1 151      0.053700
     54 H131        8.5000   -1.3990   -4.6080 hc        1 151      0.049700
     55 H132        7.7700   -2.9050   -5.2820 hc        1 151      0.049700
     56 H141        7.3860   -3.6740   -3.1170 hc        1 151      0.049700
     57 H142        8.0880   -2.1530   -2.4470 hc        1 151      0.049700
     58 H121        5.9410   -1.5310   -1.8110 h1        1 151      0.053700
     59 H122        5.2270   -2.9530   -2.6890 h1        1 151      0.053700
     60 H22         1.9160   -2.2930    5.1720 ho        1 151      0.421000
@<TRIPOS>BOND
     1    1    2 2   
     2    2    3 1   
     3    2   19 1   
     4    3    4 1   
     5    3   12 1   
     6    4    5 1   
     7    4   31 1   
     8    4   32 1   
     9    5    6 1   
    10    5   33 1   
    11    5   34 1   
    12    6    7 1   
    13    6   12 1   
    14    6   35 1   
    15    7    8 1   
    16    7   36 1   
    17    8    9 1   
    18    8   10 2   
    19    8   11 2   
    20    9   37 1   
    21    9   38 1   
    22    9   39 1   
    23   12   13 1   
    24   12   40 1   
    25   13   14 1   
    26   13   17 1   
    27   13   41 1   
    28   14   15 1   
    29   14   16 1   
    30   14   42 1   
    31   15   43 1   
    32   15   44 1   
    33   15   45 1   
    34   16   46 1   
    35   16   47 1   
    36   16   48 1   
    37   17   18 2   
    38   17   30 1   
    39   19   20 1   
    40   19   23 2   
    41   20   21 2   
    42   21   22 1   
    43   21   24 1   
    44   22   23 1   
    45   23   49 1   
    46   24   25 1   
    47   24   50 1   
    48   24   51 1   
    49   25   26 1   
    50   25   29 1   
    51   26   27 1   
    52   26   52 1   
    53   26   53 1   
    54   27   28 1   
    55   27   54 1   
    56   27   55 1   
    57   28   29 1   
    58   28   56 1   
    59   28   57 1   
    60   29   58 1   
    61   29   59 1   
    62   30   60 1   
@<TRIPOS>SUBSTRUCTURE
     1 151         1 TEMP              0 ****  ****    0 ROOT
