@<TRIPOS>MOLECULE
152
   26    25     1     0     0
SMALL
bcc


@<TRIPOS>ATOM
      1 C1          -0.7240    -0.4760     0.1420 c          1 152       0.900600
      2 O1A         -1.3400     0.0250     1.1180 o          1 152      -0.830800
      3 O1B         -0.1940    -1.6310     0.1560 o          1 152      -0.830800
      4 C2          -0.7350     0.2790    -1.2000 c3         1 152      -0.242400
      5 C3          -1.9650    -0.1610    -1.9800 c3         1 152       0.150100
      6 O3          -2.0400     0.3920    -3.2830 oh         1 152      -0.613800
      7 C4          -1.9760    -1.7020    -2.1320 c3         1 152       0.060800
      8 N5          -3.1010    -2.4250    -1.4380 n4         1 152      -0.581800
      9 C5A         -3.1150    -2.1500     0.0320 c3         1 152       0.080767
     10 C5B         -4.4070    -2.0320    -2.0330 c3         1 152       0.080767
     11 C5C         -2.8920    -3.8900    -1.6380 c3         1 152       0.080767
     12 H21         -0.7840     1.3800    -1.0180 hc         1 152       0.061200
     13 H22          0.1970     0.0440    -1.7710 hc         1 152       0.061200
     14 H3          -2.8890     0.2200    -1.4590 h1         1 152       0.074700
     15 HO3         -1.1400     0.5770    -3.5800 ho         1 152       0.415000
     16 H41         -2.0480    -1.9560    -3.2270 hx         1 152       0.118200
     17 H42         -1.0090    -2.1170    -1.6980 hx         1 152       0.118200
     18 H5A1        -2.1310    -2.4810     0.4870 hx         1 152       0.099478
     19 H5A2        -3.2010    -1.0440     0.2230 hx         1 152       0.099478
     20 H5A3        -3.9750    -2.6970     0.4940 hx         1 152       0.099478
     21 H5B1        -4.4020    -2.2590    -3.1310 hx         1 152       0.099478
     22 H5B2        -5.2330    -2.6000    -1.5310 hx         1 152       0.099478
     23 H5B3        -4.5670    -0.9310    -1.8860 hx         1 152       0.099478
     24 H5C1        -3.7250    -4.4530    -1.1430 hx         1 152       0.099478
     25 H5C2        -1.9110    -4.1840    -1.1740 hx         1 152       0.099478
     26 H5C3        -2.8770    -4.1210    -2.7340 hx         1 152       0.099478
@<TRIPOS>BOND
     1     1     2 1   
     2     1     3 1   
     3     1     4 1   
     4     4     5 1   
     5     4    12 1   
     6     4    13 1   
     7     5     6 1   
     8     5     7 1   
     9     5    14 1   
    10     6    15 1   
    11     7     8 1   
    12     7    16 1   
    13     7    17 1   
    14     8     9 1   
    15     8    10 1   
    16     8    11 1   
    17     9    18 1   
    18     9    19 1   
    19     9    20 1   
    20    10    21 1   
    21    10    22 1   
    22    10    23 1   
    23    11    24 1   
    24    11    25 1   
    25    11    26 1   
@<TRIPOS>SUBSTRUCTURE
     1 152         1 TEMP              0 ****  ****    0 ROOT
