@<TRIPOS>MOLECULE
152
   26    25     1     0     0
SMALL
bcc


@<TRIPOS>ATOM
      1 C1           0.0000     0.0000     0.0000 c          1 152       0.985600
      2 O1A          1.2080     0.0000     0.0000 o          1 152      -0.876800
      3 O1B         -0.6720     0.0000     1.1630 o          1 152      -0.876800
      4 C2          -0.7540    -0.0000    -1.3050 c3         1 152      -0.158400
      5 C3           0.2410     0.0000    -2.4680 c3         1 152       0.191100
      6 O3           0.9840    -1.2200    -2.4600 oh         1 152      -0.633800
      7 C4          -0.5190     0.1260    -3.7890 c3         1 152      -0.037200
      8 N5           0.4370     0.2990    -4.8900 n4         1 152       0.056200
      9 C5A          1.2800    -0.9000    -5.0000 c3         1 152       0.011767
     10 C5B          1.2840     1.4700    -4.6250 c3         1 152       0.011767
     11 C5C         -0.2940     0.5000    -6.1490 c3         1 152       0.011767
     12 H21         -1.3760    -0.8850    -1.3630 hc         1 152       0.026700
     13 H22         -1.3770     0.8840    -1.3630 hc         1 152       0.026700
     14 H3           0.9200     0.8370    -2.3610 h1         1 152       0.026700
     15 HO3          1.7590    -1.1130    -1.9350 ho         1 152       0.453000
     16 H41         -1.1040    -0.7700    -3.9560 hx         1 152       0.077200
     17 H42         -1.1780     0.9850    -3.7460 hx         1 152       0.077200
     18 H5A1         1.6600    -0.9830    -6.0100 hx         1 152       0.069589
     19 H5A2         0.6920    -1.7780    -4.7620 hx         1 152       0.069589
     20 H5A3         2.1090    -0.8220    -4.3070 hx         1 152       0.069589
     21 H5B1         0.6590     2.3220    -4.3890 hx         1 152       0.069589
     22 H5B2         1.8800     1.6910    -5.5020 hx         1 152       0.069589
     23 H5B3         1.9390     1.2600    -3.7870 hx         1 152       0.069589
     24 H5C1        -0.9220    -0.3610    -6.3430 hx         1 152       0.069589
     25 H5C2        -0.9110     1.3870    -6.0700 hx         1 152       0.069589
     26 H5C3         0.4120     0.6220    -6.9610 hx         1 152       0.069589
@<TRIPOS>BOND
     1     1     2 1   
     2     1     3 1   
     3     1     4 1   
     4     4     5 1   
     5     4    12 1   
     6     4    13 1   
     7     5     6 1   
     8     5     7 1   
     9     5    14 1   
    10     6    15 1   
    11     7     8 1   
    12     7    16 1   
    13     7    17 1   
    14     8     9 1   
    15     8    10 1   
    16     8    11 1   
    17     9    18 1   
    18     9    19 1   
    19     9    20 1   
    20    10    21 1   
    21    10    22 1   
    22    10    23 1   
    23    11    24 1   
    24    11    25 1   
    25    11    26 1   
@<TRIPOS>SUBSTRUCTURE
     1 152         1 TEMP              0 ****  ****    0 ROOT
