@<TRIPOS>MOLECULE
molecule
   50    52     1     0     0
SMALL
bcc


@<TRIPOS>ATOM
      1 N1           0.0000     0.0000     0.0000 n          1 153      -0.430800
      2 C2           1.4650     0.0000     0.0000 c3         1 153       0.013700
      3 C3           1.9680     0.0000     1.4210 c          1 153       0.890600
      4 O4           1.1870     0.0870     2.3380 o          1 153      -0.828300
      5 O5           3.2840    -0.0980     1.6660 o          1 153      -0.828300
      6 C6          -0.6750    -0.7740    -0.8730 c          1 153       0.657700
      7 O7          -0.0970    -1.2600    -1.8260 o          1 153      -0.604100
      8 C8          -2.1150    -1.0310    -0.6730 ca         1 153      -0.109600
      9 C9          -2.9450    -0.0230    -0.1770 ca         1 153      -0.125000
     10 C10         -4.2880    -0.2690     0.0080 ca         1 153      -0.138000
     11 C11         -4.8180    -1.5120    -0.2970 ca         1 153       0.040400
     12 C12         -4.0010    -2.5160    -0.7910 ca         1 153      -0.136000
     13 C13         -2.6550    -2.2810    -0.9850 ca         1 153       0.078400
     14 Cl14        -6.5110    -1.8130    -0.0630 cl         1 153      -0.123400
     15 Cl15        -1.6320    -3.5410    -1.6030 cl         1 153      -0.069400
     16 C16          1.9750     1.2500    -0.7220 c3         1 153      -0.040100
     17 C17          1.4030     1.2940    -2.1150 ca         1 153      -0.067300
     18 C18          0.5900     2.3460    -2.4960 ca         1 153      -0.113000
     19 C19          0.0660     2.3860    -3.7740 ca         1 153      -0.138000
     20 C20          0.3550     1.3750    -4.6720 ca         1 153      -0.148000
     21 C21          1.1680     0.3240    -4.2910 ca         1 153      -0.138000
     22 C22          1.6960     0.2850    -3.0140 ca         1 153      -0.113000
     23 C23         -0.7320     0.8410     0.9510 c3         1 153       0.055300
     24 C24         -0.7820     2.2560     0.4340 ca         1 153      -0.096300
     25 C25         -1.5080     2.5510    -0.7040 ca         1 153      -0.109000
     26 C26         -1.5540     3.8500    -1.1770 ca         1 153      -0.143000
     27 C27         -0.8730     4.8520    -0.5120 ca         1 153      -0.103000
     28 C28         -0.1480     4.5570     0.6260 ca         1 153      -0.192300
     29 C29         -0.1060     3.2590     1.1020 ca         1 153      -0.054000
     30 C30          0.5950     5.6490     1.3520 c3         1 153       0.673200
     31 F31          0.3080     6.8830     0.7550 f          1 153      -0.227633
     32 F32          0.1940     5.6760     2.6920 f          1 153      -0.227633
     33 F33          1.9700     5.4060     1.2810 f          1 153      -0.227633
     34 H2           1.8260    -0.8840    -0.5110 h1         1 153       0.084700
     35 H9          -2.5340     0.9500     0.0630 ha         1 153       0.190000
     36 H10         -4.9320     0.5120     0.3930 ha         1 153       0.141000
     37 H12         -4.4210    -3.4850    -1.0300 ha         1 153       0.150000
     38 H161         3.0560     1.2200    -0.7760 hc         1 153       0.062700
     39 H162         1.6650     2.1340    -0.1770 hc         1 153       0.062700
     40 H18          0.3640     3.1380    -1.7930 ha         1 153       0.138000
     41 H19         -0.5710     3.2100    -4.0730 ha         1 153       0.111500
     42 H20         -0.0580     1.4050    -5.6740 ha         1 153       0.108000
     43 H21          1.3950    -0.4680    -4.9950 ha         1 153       0.111500
     44 H22          2.3330    -0.5390    -2.7160 ha         1 153       0.138000
     45 H231        -1.7410     0.4620     1.0660 h1         1 153       0.116700
     46 H232        -0.2290     0.8240     1.9100 h1         1 153       0.116700
     47 H25         -2.0410     1.7660    -1.2250 ha         1 153       0.148000
     48 H26         -2.1220     4.0810    -2.0700 ha         1 153       0.130000
     49 H27         -0.9070     5.8690    -0.8840 ha         1 153       0.137000
     50 H29          0.4630     3.0280     1.9950 ha         1 153       0.172000
@<TRIPOS>BOND
     1     1     2 1   
     2     1     6 1   
     3     1    23 1   
     4     2     3 1   
     5     2    16 1   
     6     2    34 1   
     7     3     4 1   
     8     3     5 1   
     9     6     7 2   
    10     6     8 1   
    11     8     9 ar  
    12     8    13 ar  
    13     9    10 ar  
    14     9    35 1   
    15    10    11 ar  
    16    10    36 1   
    17    11    12 ar  
    18    11    14 1   
    19    12    13 ar  
    20    12    37 1   
    21    13    15 1   
    22    16    17 1   
    23    16    38 1   
    24    16    39 1   
    25    17    18 ar  
    26    17    22 ar  
    27    18    19 ar  
    28    18    40 1   
    29    19    20 ar  
    30    19    41 1   
    31    20    21 ar  
    32    20    42 1   
    33    21    22 ar  
    34    21    43 1   
    35    22    44 1   
    36    23    24 1   
    37    23    45 1   
    38    23    46 1   
    39    24    25 ar  
    40    24    29 ar  
    41    25    26 ar  
    42    25    47 1   
    43    26    27 ar  
    44    26    48 1   
    45    27    28 ar  
    46    27    49 1   
    47    28    29 ar  
    48    28    30 1   
    49    29    50 1   
    50    30    31 1   
    51    30    32 1   
    52    30    33 1   
@<TRIPOS>SUBSTRUCTURE
     1 153         1 TEMP              0 ****  ****    0 ROOT
