@<TRIPOS>MOLECULE
153
   51    53     1     0     0
SMALL
bcc


@<TRIPOS>ATOM
      1 N1           0.0700    -0.1390    -0.7100 nx         1 153      -0.558200
      2 C2           1.4400    -0.0420    -0.0870 c3         1 153      -0.034500
      3 C3           1.3080     0.2380     1.4710 c          1 153       0.925600
      4 O4           0.2940    -0.2960     2.0030 o          1 153      -0.763300
      5 O5           2.2090     0.9090     2.0020 o          1 153      -0.763300
      6 C6          -0.7190    -1.2220     0.0210 c          1 153       0.624700
      7 O7          -1.8160    -0.9410     0.4810 o          1 153      -0.439100
      8 C8          -0.1020    -2.5680     0.0050 ca         1 153      -0.164600
      9 C9           0.3360    -3.1100     1.2200 ca         1 153      -0.036000
     10 C10          0.8560    -4.4030     1.2600 ca         1 153      -0.131000
     11 C11          0.9330    -5.1550     0.0840 ca         1 153       0.050400
     12 C12          0.4950    -4.6250    -1.1370 ca         1 153      -0.130000
     13 C13         -0.0200    -3.3280    -1.1710 ca         1 153       0.038400
     14 Cl14         1.5610    -6.7290     0.1260 cl         1 153      -0.060400
     15 Cl15        -0.5570    -2.6950    -2.6560 cl         1 153      -0.080400
     16 C16          2.3730     0.9570    -0.7520 c3         1 153      -0.047100
     17 C17          2.4760     0.7750    -2.2240 ca         1 153      -0.115300
     18 C18          2.0240     1.7740    -3.0950 ca         1 153      -0.140000
     19 C19          2.1190     1.6020    -4.4760 ca         1 153      -0.124500
     20 C20          2.6820     0.4380    -4.9980 ca         1 153      -0.124000
     21 C21          3.1510    -0.5540    -4.1360 ca         1 153      -0.124500
     22 C22          3.0480    -0.3870    -2.7560 ca         1 153      -0.140000
     23 C23         -0.6510     1.1730    -0.6720 c3         1 153       0.163100
     24 C24         -1.7740     1.2560    -1.6560 ca         1 153      -0.149300
     25 C25         -3.1000     1.1310    -1.2230 ca         1 153      -0.057000
     26 C26         -4.1480     1.2740    -2.1320 ca         1 153      -0.136000
     27 C27         -3.8810     1.5330    -3.4760 ca         1 153      -0.060000
     28 C28         -2.5570     1.6470    -3.9060 ca         1 153      -0.173300
     29 C29         -1.5020     1.5130    -3.0030 ca         1 153      -0.078000
     30 C30         -2.2560     1.9090    -5.3780 c3         1 153       0.688200
     31 F31         -2.0610     0.7670    -6.1190 f          1 153      -0.234300
     32 F32         -1.1230     2.6520    -5.6040 f          1 153      -0.234300
     33 F33         -3.2440     2.5830    -6.0520 f          1 153      -0.234300
     34 H2           1.8900    -1.0740    -0.1850 hx         1 153       0.081700
     35 H9           0.2750    -2.4880     2.1380 ha         1 153       0.216000
     36 H10          1.2020    -4.8220     2.2180 ha         1 153       0.169000
     37 H12          0.5530    -5.2250    -2.0590 ha         1 153       0.171000
     38 H161         2.0770     2.0070    -0.4900 hc         1 153       0.093700
     39 H162         3.3790     0.7970    -0.2680 hc         1 153       0.093700
     40 H18          1.6090     2.7090    -2.6880 ha         1 153       0.136000
     41 H19          1.7480     2.3880    -5.1520 ha         1 153       0.141000
     42 H20          2.7610     0.3050    -6.0880 ha         1 153       0.140000
     43 H21          3.6080    -1.4670    -4.5450 ha         1 153       0.141000
     44 H22          3.4320    -1.1650    -2.0780 ha         1 153       0.136000
     45 H231         0.0980     1.9860    -0.9040 hx         1 153       0.121700
     46 H232        -1.0180     1.3170     0.3890 hx         1 153       0.121700
     47 H25         -3.3080     0.9080    -0.1620 ha         1 153       0.170000
     48 H26         -5.1890     1.1820    -1.7880 ha         1 153       0.154000
     49 H27         -4.7060     1.6510    -4.1980 ha         1 153       0.159000
     50 H29         -0.4600     1.6240    -3.3540 ha         1 153       0.158000
     51 H11          0.1790    -0.4280    -1.6900 hn         1 153       0.436800
@<TRIPOS>BOND
     1     1     2 1   
     2     1     6 1   
     3     1    23 1   
     4     1    51 1   
     5     2     3 1   
     6     2    16 1   
     7     2    34 1   
     8     3     4 1   
     9     3     5 1   
    10     6     7 2   
    11     6     8 1   
    12     8     9 ar  
    13     8    13 ar  
    14     9    10 ar  
    15     9    35 1   
    16    10    11 ar  
    17    10    36 1   
    18    11    12 ar  
    19    11    14 1   
    20    12    13 ar  
    21    12    37 1   
    22    13    15 1   
    23    16    17 1   
    24    16    38 1   
    25    16    39 1   
    26    17    18 ar  
    27    17    22 ar  
    28    18    19 ar  
    29    18    40 1   
    30    19    20 ar  
    31    19    41 1   
    32    20    21 ar  
    33    20    42 1   
    34    21    22 ar  
    35    21    43 1   
    36    22    44 1   
    37    23    24 1   
    38    23    45 1   
    39    23    46 1   
    40    24    25 ar  
    41    24    29 ar  
    42    25    26 ar  
    43    25    47 1   
    44    26    27 ar  
    45    26    48 1   
    46    27    28 ar  
    47    27    49 1   
    48    28    29 ar  
    49    28    30 1   
    50    29    50 1   
    51    30    31 1   
    52    30    32 1   
    53    30    33 1   
@<TRIPOS>SUBSTRUCTURE
     1 153         1 TEMP              0 ****  ****    0 ROOT
