@<TRIPOS>MOLECULE
154
   58    62     1     0     0
SMALL
bcc


@<TRIPOS>ATOM
      1 N1         -0.2590   -0.2130    0.9040 n4        1 154     -0.559200
      2 C2          1.1440    0.0700    0.4490 c3        1 154     -0.041500
      3 C3          2.0690    0.3700    1.7200 c         1 154      0.924600
      4 O4          3.2200    0.7650    1.4610 o         1 154     -0.772300
      5 O5          1.5400    0.1500    2.8410 o         1 154     -0.772300
      6 C6         -0.9760    0.8700    1.6750 c         1 154      0.608700
      7 O7         -1.8300    0.4570    2.4540 o         1 154     -0.450100
      8 C8         -0.6490    2.2970    1.4800 ca        1 154     -0.157600
      9 C9          0.3300    2.8840    2.2900 ca        1 154     -0.043000
     10 C10         0.5800    4.2540    2.2000 ca        1 154     -0.121000
     11 C11        -0.1550    5.0360    1.3060 ca        1 154      0.051400
     12 C12        -1.1410    4.4610    0.4930 ca        1 154     -0.130000
     13 C13        -1.3850    3.0910    0.5850 ca        1 154      0.048400
     14 CL14        0.1410    6.7010    1.1950 cl        1 154     -0.059400
     15 CL15       -2.5860    2.4000   -0.4020 cl        1 154     -0.084400
     16 C16         1.3190    1.1260   -0.6340 c3        1 154     -0.053100
     17 C17         1.3960    0.5540   -2.0070 ca        1 154     -0.099300
     18 C18         0.4410    0.8840   -2.9760 ca        1 154     -0.135000
     19 C19         0.5470    0.3760   -4.2700 ca        1 154     -0.128500
     20 C20         1.6080   -0.4650   -4.6070 ca        1 154     -0.132000
     21 C21         2.5670   -0.7910   -3.6470 ca        1 154     -0.128500
     22 C22         2.4660   -0.2820   -2.3540 ca        1 154     -0.135000
     23 C23        -1.1430   -0.7530   -0.1850 c3        1 154      0.201100
     24 C24        -1.1130   -2.2270   -0.2510 cc        1 154     -0.218400
     25 C25        -1.6060   -3.0670    0.7410 cd        1 154     -0.124000
     26 C26        -1.4810   -4.4330    0.3780 cd        1 154     -0.126000
     27 C27        -0.9010   -4.5770   -0.8800 cc        1 154     -0.057900
     28 S28        -0.5310   -3.0890   -1.5540 ss        1 154      0.136200
     29 C29        -0.6460   -5.8190   -1.5340 cc        1 154      0.103900
     30 C30        -0.0270   -6.1420   -2.7250 cd        1 154     -0.151200
     31 C31        -0.0720   -7.5840   -2.8460 ca        1 154     -0.107800
     32 C32         0.3660   -8.5130   -3.7880 ca        1 154     -0.078000
     33 C33         0.1320   -9.8630   -3.5420 ca        1 154     -0.148000
     34 C34        -0.5280  -10.2970   -2.3810 ca        1 154     -0.105000
     35 C35        -0.9810   -9.3980   -1.4180 ca        1 154     -0.123000
     36 C36        -0.7420   -8.0510   -1.6720 ca        1 154      0.069100
     37 O37        -1.1010   -6.9780   -0.8560 os        1 154     -0.190200
     38 H2          1.5210   -0.9190    0.0480 hx        1 154      0.089700
     39 H9          0.9180    2.2530    2.9900 ha        1 154      0.217000
     40 H10         1.3600    4.7060    2.8350 ha        1 154      0.173000
     41 H12        -1.7190    5.0830   -0.2080 ha        1 154      0.170000
     42 H161        0.5160    1.9070   -0.5900 hc        1 154      0.089200
     43 H162        2.3010    1.6430   -0.4120 hc        1 154      0.089200
     44 H18        -0.3870    1.5630   -2.7230 ha        1 154      0.142000
     45 H19        -0.2030    0.6450   -5.0270 ha        1 154      0.135000
     46 H20         1.6940   -0.8610   -5.6290 ha        1 154      0.134000
     47 H21         3.4130   -1.4420   -3.9140 ha        1 154      0.135000
     48 H22         3.2340   -0.5200   -1.6000 ha        1 154      0.142000
     49 H231       -0.8100   -0.2920   -1.1610 hx        1 154      0.103700
     50 H232       -2.2030   -0.4170    0.0260 hx        1 154      0.103700
     51 H25        -2.0420   -2.7320    1.6860 ha        1 154      0.169000
     52 H26        -1.8000   -5.2690    1.0070 ha        1 154      0.179000
     53 H30         0.4190   -5.4630   -3.4470 ha        1 154      0.167000
     54 H32         0.8850   -8.1850   -4.6990 ha        1 154      0.141000
     55 H33         0.4710  -10.6120   -4.2730 ha        1 154      0.137000
     56 H34        -0.6920  -11.3750   -2.2280 ha        1 154      0.139000
     57 H35        -1.4960   -9.7270   -0.5070 ha        1 154      0.153000
     58 H11        -0.1250   -0.9650    1.6170 hn        1 154      0.479800
@<TRIPOS>BOND
     1    1    2 1   
     2    1    6 1   
     3    1   23 1   
     4    1   58 1   
     5    2    3 1   
     6    2   16 1   
     7    2   38 1   
     8    3    4 1   
     9    3    5 1   
    10    6    7 2   
    11    6    8 1   
    12    8    9 ar  
    13    8   13 ar  
    14    9   10 ar  
    15    9   39 1   
    16   10   11 ar  
    17   10   40 1   
    18   11   12 ar  
    19   11   14 1   
    20   12   13 ar  
    21   12   41 1   
    22   13   15 1   
    23   16   17 1   
    24   16   42 1   
    25   16   43 1   
    26   17   18 ar  
    27   17   22 ar  
    28   18   19 ar  
    29   18   44 1   
    30   19   20 ar  
    31   19   45 1   
    32   20   21 ar  
    33   20   46 1   
    34   21   22 ar  
    35   21   47 1   
    36   22   48 1   
    37   23   24 1   
    38   23   49 1   
    39   23   50 1   
    40   24   25 2   
    41   24   28 1   
    42   25   26 1   
    43   25   51 1   
    44   26   27 2   
    45   26   52 1   
    46   27   28 1   
    47   27   29 1   
    48   29   30 2   
    49   29   37 1   
    50   30   31 1   
    51   30   53 1   
    52   31   32 ar  
    53   31   36 ar  
    54   32   33 ar  
    55   32   54 1   
    56   33   34 ar  
    57   33   55 1   
    58   34   35 ar  
    59   34   56 1   
    60   35   36 ar  
    61   35   57 1   
    62   36   37 1   
@<TRIPOS>SUBSTRUCTURE
     1 154         1 TEMP              0 ****  ****    0 ROOT
