@<TRIPOS>MOLECULE
molecule
   54    57     1     0     0
SMALL
bcc


@<TRIPOS>ATOM
      1 N18          0.0000     0.0000     0.0000 n2         1 155      -0.730100
      2 C17          1.3020     0.0000     0.0000 ce         1 155       0.523800
      3 N19          1.9900     0.0000     1.1940 nz         1 155      -0.741600
      4 C12          2.0420     0.0030    -1.2820 ca         1 155      -0.234900
      5 C13          1.3450     0.0050    -2.4770 ca         1 155      -0.043000
      6 C4           2.0510     0.0070    -3.6890 ca         1 155      -0.028000
      7 C5           1.3710     0.0090    -4.9210 ca         1 155      -0.112000
      8 C6           2.0710     0.0120    -6.0840 ca         1 155      -0.086000
      9 C1           3.4790     0.0140    -6.0780 ca         1 155      -0.108600
     10 C2           4.1760     0.0070    -4.8820 ca         1 155      -0.053000
     11 C3           3.4690     0.0100    -3.6700 ca         1 155      -0.024000
     12 C10          4.1490     0.0080    -2.4370 ca         1 155      -0.053000
     13 C11          3.4460     0.0060    -1.2750 ca         1 155      -0.158000
     14 C20          4.2160     0.0160    -7.3570 c          1 155       0.665700
     15 O21          5.4310     0.0170    -7.3580 o          1 155      -0.579100
     16 N22          3.5420     0.0180    -8.5240 ns         1 155      -0.463100
     17 C23          4.2370     0.1310    -9.7330 ca         1 155       0.031600
     18 C28          5.4000     0.8850    -9.7960 ca         1 155      -0.106000
     19 C27          6.0870     0.9860   -11.0040 ca         1 155      -0.159900
     20 C26          5.5970     0.3410   -12.1420 ca         1 155      -0.068300
     21 C25          4.4430    -0.4060   -12.0700 ca         1 155      -0.107000
     22 C24          3.7620    -0.5130   -10.8690 ca         1 155      -0.143000
     23 C32          6.3590     0.4780   -13.4340 c3         1 155      -0.067100
     24 C33          6.9990     1.8620   -13.5030 c3         1 155       0.116800
     25 N34          7.7320     2.1670   -12.2790 n2         1 155      -0.594900
     26 C35          7.3230     1.7810   -11.1180 ce         1 155       0.469900
     27 C40          8.1100     2.1370    -9.8820 c3         1 155      -0.103000
     28 C41          8.6690     0.8630    -9.2490 c3         1 155      -0.083100
     29 C45          9.2640     3.0670   -10.2630 c3         1 155      -0.083100
     30 H18         -0.5030     0.0010    -0.8650 hn         1 155       0.481400
     31 H191         2.5670    -0.8150     1.2470 hn         1 155       0.474133
     32 H192         1.3380    -0.0040     1.9540 hn         1 155       0.474133
     33 H13          0.2700    -0.1260    -2.4770 ha         1 155       0.140000
     34 H5           0.2880     0.0070    -4.9420 ha         1 155       0.149000
     35 H6           1.5410     0.0170    -7.0280 ha         1 155       0.147000
     36 H2           5.2590     0.0090    -4.8810 ha         1 155       0.179000
     37 H10          5.2320     0.0100    -2.4160 ha         1 155       0.163000
     38 H11          3.9760     0.0060    -0.3300 ha         1 155       0.108000
     39 H22          2.5430    -0.0370    -8.5250 hn         1 155       0.323500
     40 H28          5.8390     1.2800    -8.8880 ha         1 155       0.168000
     41 H25          4.0910    -0.9450   -12.9410 ha         1 155       0.142000
     42 H24          2.8540    -1.1010   -10.8150 ha         1 155       0.130000
     43 H321         7.1340    -0.2790   -13.4760 hc         1 155       0.063200
     44 H322         5.6800     0.3530   -14.2680 hc         1 155       0.063200
     45 H331         7.6830     1.8940   -14.3420 h1         1 155       0.067200
     46 H332         6.2220     2.6040   -13.6430 h1         1 155       0.067200
     47 H40          7.4620     2.6380    -9.1730 hc         1 155       0.056700
     48 H411         7.8790     0.1270    -9.1610 hc         1 155       0.041533
     49 H412         9.4630     0.4690    -9.8720 hc         1 155       0.041533
     50 H413         9.0620     1.0910    -8.2650 hc         1 155       0.041533
     51 H451         9.9060     2.5700   -10.9800 hc         1 155       0.041533
     52 H452         8.8670     3.9740   -10.7010 hc         1 155       0.041533
     53 H453         9.8360     3.3140    -9.3770 hc         1 155       0.041533
     54 H193         2.5610     0.8200     1.2510 hn         1 155       0.474133
@<TRIPOS>BOND
     1     1     2 2   
     2     1    30 1   
     3     2     3 1   
     4     2     4 1   
     5     3    31 1   
     6     3    32 1   
     7     4     5 ar  
     8     4    13 ar  
     9     5     6 ar  
    10     5    33 1   
    11     6     7 ar  
    12     6    11 ar  
    13     7     8 ar  
    14     7    34 1   
    15     8     9 ar  
    16     8    35 1   
    17     9    10 ar  
    18     9    14 1   
    19    10    11 ar  
    20    10    36 1   
    21    11    12 ar  
    22    12    13 ar  
    23    12    37 1   
    24    13    38 1   
    25    14    15 2   
    26    14    16 1   
    27    16    17 1   
    28    16    39 1   
    29    17    18 ar  
    30    17    22 ar  
    31    18    19 ar  
    32    18    40 1   
    33    19    20 ar  
    34    19    26 1   
    35    20    21 ar  
    36    20    23 1   
    37    21    22 ar  
    38    21    41 1   
    39    22    42 1   
    40    23    24 1   
    41    23    43 1   
    42    23    44 1   
    43    24    25 1   
    44    24    45 1   
    45    24    46 1   
    46    25    26 2   
    47    26    27 1   
    48    27    28 1   
    49    27    29 1   
    50    27    47 1   
    51    28    48 1   
    52    28    49 1   
    53    28    50 1   
    54    29    51 1   
    55    29    52 1   
    56    29    53 1   
    57    54     3 1   
@<TRIPOS>SUBSTRUCTURE
     1 155         1 TEMP              0 ****  ****    0 ROOT
