@<TRIPOS>MOLECULE
155
   54    57     1     0     0
SMALL
bcc


@<TRIPOS>ATOM
      1 N18          0.0000     0.0000     0.0000 n2         1 155      -0.476100
      2 C17          1.3020     0.0000     0.0000 ce         1 155       0.241800
      3 N19          1.9900     0.0000     1.1940 nz         1 155       0.122400
      4 C12          2.0420     0.0030    -1.2820 ca         1 155      -0.210900
      5 C13          1.3450     0.0050    -2.4770 ca         1 155       0.034000
      6 C4           2.0510     0.0070    -3.6890 ca         1 155      -0.045000
      7 C5           1.3710     0.0090    -4.9210 ca         1 155      -0.074000
      8 C6           2.0710     0.0120    -6.0840 ca         1 155      -0.069000
      9 C1           3.4790     0.0140    -6.0780 ca         1 155      -0.117600
     10 C2           4.1760     0.0070    -4.8820 ca         1 155      -0.020000
     11 C3           3.4690     0.0100    -3.6700 ca         1 155      -0.025000
     12 C10          4.1490     0.0080    -2.4370 ca         1 155      -0.019000
     13 C11          3.4460     0.0060    -1.2750 ca         1 155      -0.143000
     14 C20          4.2160     0.0160    -7.3570 c          1 155       0.566700
     15 O21          5.4310     0.0170    -7.3580 o          1 155      -0.620100
     16 N22          3.5420     0.0180    -8.5240 ns         1 155      -0.016100
     17 C23          4.2370     0.1310    -9.7330 ca         1 155      -0.118400
     18 C28          5.4000     0.8850    -9.7960 ca         1 155      -0.062000
     19 C27          6.0870     0.9860   -11.0040 ca         1 155      -0.146900
     20 C26          5.5970     0.3410   -12.1420 ca         1 155      -0.071300
     21 C25          4.4430    -0.4060   -12.0700 ca         1 155      -0.079000
     22 C24          3.7620    -0.5130   -10.8690 ca         1 155      -0.113000
     23 C32          6.3590     0.4780   -13.4340 c3         1 155       0.003900
     24 C33          6.9990     1.8620   -13.5030 c3         1 155       0.155800
     25 N34          7.7320     2.1670   -12.2790 n2         1 155      -0.514900
     26 C35          7.3230     1.7810   -11.1180 ce         1 155       0.426900
     27 C40          8.1100     2.1370    -9.8820 c3         1 155      -0.078000
     28 C41          8.6690     0.8630    -9.2490 c3         1 155       0.004400
     29 C45          9.2640     3.0670   -10.2630 c3         1 155       0.004400
     30 H18         -0.5020    -0.0010     0.8660 hn         1 155       0.336400
     31 H191         2.5620     0.8190     1.2510 hn         1 155       0.227133
     32 H192         2.5680    -0.8150     1.2470 hn         1 155       0.227133
     33 H13          0.2690    -0.1230    -2.4770 ha         1 155       0.132000
     34 H5           0.2880     0.0070    -4.9420 ha         1 155       0.119000
     35 H6           1.5410     0.0170    -7.0280 ha         1 155       0.116000
     36 H2           5.2590     0.0090    -4.8810 ha         1 155       0.144000
     37 H10          5.2320     0.0100    -2.4160 ha         1 155       0.126000
     38 H11          3.9760     0.0060    -0.3300 ha         1 155       0.078000
     39 H22          2.5450    -0.0630    -8.5260 hn         1 155       0.169500
     40 H28          5.6900     1.5040    -8.9550 ha         1 155       0.137000
     41 H25          4.0990    -0.9570   -12.9370 ha         1 155       0.113000
     42 H24          2.8560    -1.1040   -10.8140 ha         1 155       0.104000
     43 H321         7.1340    -0.2790   -13.4760 hc         1 155       0.031700
     44 H322         5.6800     0.3530   -14.2680 hc         1 155       0.031700
     45 H331         6.2220     2.6040   -13.6430 h1         1 155       0.027700
     46 H332         7.6830     1.8940   -14.3420 h1         1 155       0.027700
     47 H40          7.4620     2.6380    -9.1730 hc         1 155       0.027700
     48 H411         9.0610     1.0910    -8.2650 hc         1 155       0.009700
     49 H412         7.8800     0.1270    -9.1620 hc         1 155       0.009700
     50 H413         9.4630     0.4690    -9.8720 hc         1 155       0.009700
     51 H451         8.8680     3.9660   -10.7180 hc         1 155       0.009700
     52 H452         9.9160     2.5630   -10.9660 hc         1 155       0.009700
     53 H453         9.8250     3.3290    -9.3740 hc         1 155       0.009700
     54 H193         1.3390    -0.0060     1.9550 hn         1 155       0.227133
@<TRIPOS>BOND
     1     1     2 2   
     2     1    30 1   
     3     2     3 1   
     4     2     4 1   
     5     3    31 1   
     6     3    32 1   
     7     3    54 1   
     8     4     5 ar  
     9     4    13 ar  
    10     5     6 ar  
    11     5    33 1   
    12     6     7 ar  
    13     6    11 ar  
    14     7     8 ar  
    15     7    34 1   
    16     8     9 ar  
    17     8    35 1   
    18     9    10 ar  
    19     9    14 1   
    20    10    11 ar  
    21    10    36 1   
    22    11    12 ar  
    23    12    13 ar  
    24    12    37 1   
    25    13    38 1   
    26    14    15 2   
    27    14    16 1   
    28    16    17 1   
    29    16    39 1   
    30    17    18 ar  
    31    17    22 ar  
    32    18    19 ar  
    33    18    40 1   
    34    19    20 ar  
    35    19    26 1   
    36    20    21 ar  
    37    20    23 1   
    38    21    22 ar  
    39    21    41 1   
    40    22    42 1   
    41    23    24 1   
    42    23    43 1   
    43    23    44 1   
    44    24    25 1   
    45    24    45 1   
    46    24    46 1   
    47    25    26 2   
    48    26    27 1   
    49    27    28 1   
    50    27    29 1   
    51    27    47 1   
    52    28    48 1   
    53    28    49 1   
    54    28    50 1   
    55    29    51 1   
    56    29    52 1   
    57    29    53 1   
@<TRIPOS>SUBSTRUCTURE
     1 155         1 TEMP              0 ****  ****    0 ROOT
