@<TRIPOS>MOLECULE
155
   54    57     1     0     0
SMALL
bcc


@<TRIPOS>ATOM
      1 N18          0.4780    -2.5190    -0.4920 n2         1 155      -0.713100
      2 C17          1.1140    -1.4160    -0.4180 ce         1 155       0.594800
      3 N19          0.8660    -0.5760     0.8110 nz         1 155      -0.825600
      4 C12          2.0810    -0.7660    -1.3260 ca         1 155      -0.262900
      5 C13          3.3070    -1.3520    -1.5630 ca         1 155      -0.044000
      6 C4           4.2280    -0.7360    -2.4520 ca         1 155      -0.041000
      7 C5           5.5040    -1.3060    -2.7080 ca         1 155      -0.115000
      8 C6           6.3830    -0.6890    -3.5670 ca         1 155      -0.087000
      9 C1           6.0220     0.5240    -4.2060 ca         1 155      -0.106600
     10 C2           4.7920     1.1010    -3.9710 ca         1 155      -0.068000
     11 C3           3.8670     0.4790    -3.0920 ca         1 155      -0.021000
     12 C10          2.5880     1.0510    -2.8360 ca         1 155      -0.067000
     13 C11          1.7130     0.4460    -1.9700 ca         1 155      -0.146000
     14 C20          6.9840     1.2440    -5.1070 c          1 155       0.667700
     15 O21          7.1200     2.4760    -5.0020 o          1 155      -0.568100
     16 N22          7.6700     0.4590    -6.0130 ns         1 155      -0.456100
     17 C23          8.5790     0.9120    -6.9920 ca         1 155       0.036600
     18 C28          8.8950     0.0430    -8.0630 ca         1 155      -0.145000
     19 C27          9.8120     0.4220    -9.0400 ca         1 155      -0.145900
     20 C26         10.4030     1.7000    -8.9840 ca         1 155      -0.069300
     21 C25         10.0930     2.5550    -7.9260 ca         1 155      -0.110000
     22 C24          9.1980     2.1760    -6.9310 ca         1 155      -0.128000
     23 C32         11.3600     2.1270   -10.0390 c3         1 155      -0.066100
     24 C33         11.1550     1.3630   -11.3480 c3         1 155       0.098800
     25 N34         10.7740    -0.0170   -11.2420 n2         1 155      -0.569900
     26 C35         10.1750    -0.4560   -10.1820 ce         1 155       0.460900
     27 C40          9.8110    -1.9240   -10.0670 c3         1 155      -0.099000
     28 C41         10.8400    -2.8290   -10.7160 c3         1 155      -0.087600
     29 C45          8.4420    -2.1630   -10.6740 c3         1 155      -0.087600
     30 H18          0.6100    -3.0950    -1.2990 hn         1 155       0.490400
     31 H191         0.1140    -0.9580     1.3980 hn         1 155       0.470467
     32 H192         0.6180     0.3710     0.5030 hn         1 155       0.470467
     33 H13          3.5960    -2.2970    -1.0740 ha         1 155       0.150000
     34 H5           5.7800    -2.2460    -2.2040 ha         1 155       0.151000
     35 H6           7.3800    -1.1260    -3.7450 ha         1 155       0.162000
     36 H2           4.5260     2.0580    -4.4530 ha         1 155       0.174000
     37 H10          2.3150     1.9880    -3.3500 ha         1 155       0.166000
     38 H11          0.7150     0.8780    -1.8000 ha         1 155       0.137000
     39 H22          7.4150    -0.5020    -6.0760 hn         1 155       0.318500
     40 H28          8.4020    -0.9410    -8.1330 ha         1 155       0.136000
     41 H25         10.5610     3.5510    -7.8760 ha         1 155       0.144000
     42 H24          8.9750     2.8770    -6.1100 ha         1 155       0.169000
     43 H321        11.2550     3.2250   -10.2380 hc         1 155       0.063200
     44 H322        12.4060     1.9550    -9.6630 hc         1 155       0.063200
     45 H331        10.3720     1.8890   -11.9700 h1         1 155       0.070700
     46 H332        12.1180     1.3820   -11.9350 h1         1 155       0.070700
     47 H40          9.7840    -2.1830    -8.9700 hc         1 155       0.045700
     48 H411        10.5910    -3.8950   -10.4960 hc         1 155       0.041700
     49 H412        10.8530    -2.6910   -11.8240 hc         1 155       0.041700
     50 H413        11.8590    -2.6090   -10.3190 hc         1 155       0.041700
     51 H451         8.1470    -3.2310   -10.5340 hc         1 155       0.041700
     52 H452         8.4570    -1.9390   -11.7680 hc         1 155       0.041700
     53 H453         7.6750    -1.5120   -10.1900 hc         1 155       0.041700
     54 H193         1.7350    -0.5360     1.3530 hn         1 155       0.470467
@<TRIPOS>BOND
     1     1     2 2   
     2     1    30 1   
     3     2     3 1   
     4     2     4 1   
     5     3    31 1   
     6     3    32 1   
     7     3    54 1   
     8     4     5 ar  
     9     4    13 ar  
    10     5     6 ar  
    11     5    33 1   
    12     6     7 ar  
    13     6    11 ar  
    14     7     8 ar  
    15     7    34 1   
    16     8     9 ar  
    17     8    35 1   
    18     9    10 ar  
    19     9    14 1   
    20    10    11 ar  
    21    10    36 1   
    22    11    12 ar  
    23    12    13 ar  
    24    12    37 1   
    25    13    38 1   
    26    14    15 2   
    27    14    16 1   
    28    16    17 1   
    29    16    39 1   
    30    17    18 ar  
    31    17    22 ar  
    32    18    19 ar  
    33    18    40 1   
    34    19    20 ar  
    35    19    26 1   
    36    20    21 ar  
    37    20    23 1   
    38    21    22 ar  
    39    21    41 1   
    40    22    42 1   
    41    23    24 1   
    42    23    43 1   
    43    23    44 1   
    44    24    25 1   
    45    24    45 1   
    46    24    46 1   
    47    25    26 2   
    48    26    27 1   
    49    27    28 1   
    50    27    29 1   
    51    27    47 1   
    52    28    48 1   
    53    28    49 1   
    54    28    50 1   
    55    29    51 1   
    56    29    52 1   
    57    29    53 1   
@<TRIPOS>SUBSTRUCTURE
     1 155         1 TEMP              0 ****  ****    0 ROOT
