@<TRIPOS>MOLECULE
156
   52    54     1     0     0
SMALL
bcc


@<TRIPOS>ATOM
      1 C1           3.5120     1.5220     2.6620 c          1 156       0.905200
      2 C2           4.2920     1.5130     1.3530 ca         1 156      -0.103600
      3 C3           4.8670     2.6940     0.8670 ca         1 156      -0.117500
      4 C4           5.5880     2.6920    -0.3200 ca         1 156      -0.134500
      5 C5           5.7660     1.4990    -1.0460 ca         1 156      -0.134800
      6 C8           6.5310     1.5450    -2.2760 ce         1 156      -0.024200
      7 C9           7.2230     0.5680    -2.8730 cf         1 156      -0.285200
      8 C6           5.1760     0.3210    -0.5650 ca         1 156      -0.134500
      9 C7           4.4470     0.3320     0.6220 ca         1 156      -0.117500
     10 C10          7.3950    -0.8330    -2.4480 c          1 156       0.598900
     11 C11          8.4420    -1.1060    -1.4350 ca         1 156      -0.165600
     12 C12          8.7310    -0.1980    -0.4170 ca         1 156      -0.075000
     13 C13          9.7240    -0.4620     0.5390 ca         1 156      -0.067300
     14 C14          9.9720     0.5730     1.6040 c3         1 156      -0.005700
     15 C15         11.2840     0.3030     2.3410 c3         1 156      -0.069400
     16 C16         11.4450    -1.1500     2.7070 c3         1 156      -0.069400
     17 C17         11.4850    -2.0600     1.4790 c3         1 156      -0.006700
     18 C18         10.4260    -1.6770     0.4790 ca         1 156      -0.043300
     19 C19         10.1390    -2.5810    -0.5570 ca         1 156      -0.152000
     20 C20          9.1560    -2.3100    -1.4990 ca         1 156      -0.091000
     21 C21          8.8080     0.5670     2.5910 c3         1 156      -0.088100
     22 C22         10.0750     1.9650     0.9800 c3         1 156      -0.088100
     23 C23         11.2640    -3.4930     1.9630 c3         1 156      -0.083600
     24 C24         12.8560    -1.9750     0.8140 c3         1 156      -0.083600
     25 O1           3.4340     2.6150     3.2900 o          1 156      -0.825300
     26 O2           2.9930     0.4380     3.0470 o          1 156      -0.825300
     27 O3           6.7700    -1.7580    -2.9860 o          1 156      -0.546100
     28 H3           4.7290     3.6180     1.4520 ha         1 156       0.156500
     29 H4           6.0310     3.6250    -0.6960 ha         1 156       0.114500
     30 H8           6.5370     2.5430    -2.7600 ha         1 156       0.112000
     31 H9           7.7440     0.7710    -3.8260 ha         1 156       0.132000
     32 H6           5.2860    -0.6140    -1.1350 ha         1 156       0.114500
     33 H7           3.9780    -0.5880     1.0100 ha         1 156       0.156500
     34 H12          8.1430     0.7360    -0.3540 ha         1 156       0.162000
     35 H151        12.1430     0.6260     1.6940 hc         1 156       0.038700
     36 H152        11.3120     0.9280     3.2720 hc         1 156       0.038700
     37 H161        12.3930    -1.2880     3.2920 hc         1 156       0.042700
     38 H162        10.5940    -1.4650     3.3680 hc         1 156       0.042700
     39 H19         10.6960    -3.5270    -0.6230 ha         1 156       0.125000
     40 H20          8.9200    -3.0370    -2.2920 ha         1 156       0.141000
     41 H211         8.9570     1.3610     3.3610 hc         1 156       0.041867
     42 H212         7.8460     0.7640     2.0570 hc         1 156       0.041867
     43 H213         8.7290    -0.4210     3.1030 hc         1 156       0.041867
     44 H221         9.0740     2.3220     0.6380 hc         1 156       0.041867
     45 H222        10.7710     1.9520     0.1090 hc         1 156       0.041867
     46 H223        10.4610     2.6890     1.7380 hc         1 156       0.041867
     47 H231        11.5180    -4.2290     1.1640 hc         1 156       0.034367
     48 H232        11.9160    -3.6970     2.8460 hc         1 156       0.034367
     49 H233        10.1990    -3.6410     2.2610 hc         1 156       0.034367
     50 H241        13.0750    -0.9270     0.5000 hc         1 156       0.034367
     51 H242        13.6470    -2.3090     1.5270 hc         1 156       0.034367
     52 H243        12.8870    -2.6310    -0.0890 hc         1 156       0.034367
@<TRIPOS>BOND
     1     1     2 1   
     2     1    25 1   
     3     1    26 1   
     4     2     3 ar  
     5     2     9 ar  
     6     3     4 ar  
     7     3    28 1   
     8     4     5 ar  
     9     4    29 1   
    10     5     6 1   
    11     5     8 ar  
    12     6     7 2   
    13     6    30 1   
    14     7    10 1   
    15     7    31 1   
    16     8     9 ar  
    17     8    32 1   
    18     9    33 1   
    19    10    11 1   
    20    10    27 2   
    21    11    12 ar  
    22    11    20 ar  
    23    12    13 ar  
    24    12    34 1   
    25    13    14 1   
    26    13    18 ar  
    27    14    15 1   
    28    14    21 1   
    29    14    22 1   
    30    15    16 1   
    31    15    35 1   
    32    15    36 1   
    33    16    17 1   
    34    16    37 1   
    35    16    38 1   
    36    17    18 1   
    37    17    23 1   
    38    17    24 1   
    39    18    19 ar  
    40    19    20 ar  
    41    19    39 1   
    42    20    40 1   
    43    21    41 1   
    44    21    42 1   
    45    21    43 1   
    46    22    44 1   
    47    22    45 1   
    48    22    46 1   
    49    23    47 1   
    50    23    48 1   
    51    23    49 1   
    52    24    50 1   
    53    24    51 1   
    54    24    52 1   
@<TRIPOS>SUBSTRUCTURE
     1 156         1 TEMP              0 ****  ****    0 ROOT
