@<TRIPOS>MOLECULE
molecule
   52    54     1     0     0
SMALL
bcc


@<TRIPOS>ATOM
      1 C1           0.0000     0.0000     0.0000 c          1 156       0.877200
      2 C2           1.4780     0.0000     0.0000 ca         1 156      -0.074600
      3 C3           2.1750     0.0000     1.2090 ca         1 156      -0.112000
      4 C4           3.5510    -0.0010     1.2100 ca         1 156      -0.125500
      5 C5           4.2520    -0.0010    -0.0010 ca         1 156      -0.133800
      6 C8           5.7230    -0.0010    -0.0010 ce         1 156       0.025800
      7 C9           6.3990    -0.0010    -1.1700 cf         1 156      -0.325200
      8 C6           3.5520     0.0050    -1.2120 ca         1 156      -0.125500
      9 C7           2.1750    -0.0000    -1.2110 ca         1 156      -0.112000
     10 C10          7.8620    -0.0020    -1.1690 c          1 156       0.586900
     11 C11          8.6020    -0.0020    -2.4500 ca         1 156      -0.159600
     12 C12          9.9950    -0.0010    -2.4570 ca         1 156      -0.076000
     13 C13         10.6920    -0.0030    -3.6550 ca         1 156      -0.083300
     14 C14         12.1960     0.0020    -3.5880 c3         1 156      -0.015700
     15 C15         12.7950    -0.4300    -4.9250 c3         1 156      -0.072400
     16 C16         12.1560     0.4120    -6.0350 c3         1 156      -0.071400
     17 C17         10.6980    -0.0160    -6.1850 c3         1 156      -0.021700
     18 C18         10.0020    -0.0050    -4.8480 ca         1 156      -0.046300
     19 C19          8.6110    -0.0040    -4.8450 ca         1 156      -0.146000
     20 C20          7.9090    -0.0010    -3.6620 ca         1 156      -0.088000
     21 C21         12.6560    -0.9640    -2.4940 c3         1 156      -0.082100
     22 C22         12.6810     1.4130    -3.2520 c3         1 156      -0.082100
     23 C23          9.9830     0.9480    -7.1330 c3         1 156      -0.081100
     24 C24         10.6440    -1.4300    -6.7700 c3         1 156      -0.081100
     25 O1          -0.6070     0.0010     1.0520 o          1 156      -0.831300
     26 O2          -0.6740     0.0010    -1.1660 o          1 156      -0.831300
     27 O3           8.4700    -0.0030    -0.1160 o          1 156      -0.567100
     28 H3           1.6330     0.0000     2.1470 ha         1 156       0.154000
     29 H4           4.0920    -0.0010     2.1490 ha         1 156       0.111500
     30 H8           6.2650    -0.0020     0.9380 ha         1 156       0.138000
     31 H9           5.8570    -0.0010    -2.1080 ha         1 156       0.138000
     32 H6           4.0920     0.0050    -2.1500 ha         1 156       0.111500
     33 H7           1.6330     0.0050    -2.1480 ha         1 156       0.154000
     34 H12         10.5370     0.0010    -1.5190 ha         1 156       0.151000
     35 H151        12.5840    -1.4780    -5.0960 hc         1 156       0.043700
     36 H152        13.8660    -0.2640    -4.9140 hc         1 156       0.043700
     37 H161        12.1890     1.4560    -5.7490 hc         1 156       0.045700
     38 H162        12.6760     0.2220    -6.9660 hc         1 156       0.045700
     39 H19          8.0740    -0.0070    -5.7860 ha         1 156       0.131000
     40 H20          6.8270    -0.0020    -3.6910 ha         1 156       0.143000
     41 H211        12.4810    -0.5180    -1.5220 hc         1 156       0.036867
     42 H212        13.7130    -1.1670    -2.6130 hc         1 156       0.036867
     43 H213        12.0990    -1.8900    -2.5730 hc         1 156       0.036867
     44 H221        12.6600     1.5560    -2.1780 hc         1 156       0.036867
     45 H222        13.6930     1.5430    -3.6140 hc         1 156       0.036867
     46 H223        12.0320     2.1400    -3.7250 hc         1 156       0.036867
     47 H231         9.0490     0.5080    -7.4590 hc         1 156       0.036367
     48 H232         9.7830     1.8800    -6.6180 hc         1 156       0.036367
     49 H233        10.6120     1.1400    -7.9940 hc         1 156       0.036367
     50 H241        11.4530    -1.5580    -7.4780 hc         1 156       0.036367
     51 H242         9.6970    -1.5770    -7.2730 hc         1 156       0.036367
     52 H243        10.7450    -2.1550    -5.9710 hc         1 156       0.036367
@<TRIPOS>BOND
     1     1     2 1
     2     1    25 1
     3     1    26 1
     4     2     3 ar
     5     2     9 ar
     6     3     4 ar
     7     3    28 1
     8     4     5 ar
     9     4    29 1
    10     5     6 1
    11     5     8 ar
    12     6     7 2
    13     6    30 1
    14     7    10 1
    15     7    31 1
    16     8     9 ar
    17     8    32 1
    18     9    33 1
    19    10    11 1
    20    10    27 2
    21    11    12 ar
    22    11    20 ar
    23    12    13 ar
    24    12    34 1
    25    13    14 1
    26    13    18 ar
    27    14    15 1
    28    14    21 1
    29    14    22 1
    30    15    16 1
    31    15    35 1
    32    15    36 1
    33    16    17 1
    34    16    37 1
    35    16    38 1
    36    17    18 1
    37    17    23 1
    38    17    24 1
    39    18    19 ar
    40    19    20 ar
    41    19    39 1
    42    20    40 1
    43    21    41 1
    44    21    42 1
    45    21    43 1
    46    22    44 1
    47    22    45 1
    48    22    46 1
    49    23    47 1
    50    23    48 1
    51    23    49 1
    52    24    50 1
    53    24    51 1
    54    24    52 1
@<TRIPOS>SUBSTRUCTURE
     1 156         1 TEMP              0 ****  ****    0 ROOT
