@<TRIPOS>MOLECULE
156
   52    54     1     0     0
SMALL
bcc


@<TRIPOS>ATOM
      1 C1          2.3260   -2.2240   -2.4770 c         1 156      0.905200
      2 C2          3.2900   -1.3200   -1.7190 ca        1 156     -0.101600
      3 C3          2.9690    0.0260   -1.5000 ca        1 156     -0.117000
      4 C4          3.8450    0.8580   -0.8130 ca        1 156     -0.132500
      5 C5          5.0740    0.3650   -0.3390 ca        1 156     -0.134800
      6 C8          5.9570    1.2690    0.3720 ce        1 156     -0.022200
      7 C9          7.2890    1.2240    0.4870 cf        1 156     -0.287200
      8 C6          5.3880   -0.9860   -0.5500 ca        1 156     -0.132500
      9 C7          4.5020   -1.8160   -1.2320 ca        1 156     -0.117000
     10 C10         8.2270    0.2360   -0.0760 c         1 156      0.599900
     11 C11         8.5960    0.3880   -1.5030 ca        1 156     -0.166600
     12 C12         9.8230   -0.1140   -1.9460 ca        1 156     -0.082000
     13 C13        10.2260    0.0080   -3.2830 ca        1 156     -0.083300
     14 C14        11.5530   -0.5810   -3.6790 c3        1 156     -0.001700
     15 C15        11.6930   -0.6620   -5.2000 c3        1 156     -0.069400
     16 C16        11.2250    0.5950   -5.8880 c3        1 156     -0.068400
     17 C17         9.7420    0.8740   -5.6400 c3        1 156     -0.007700
     18 C18         9.3820    0.6680   -4.1930 ca        1 156     -0.038300
     19 C19         8.1380    1.1420   -3.7470 ca        1 156     -0.144000
     20 C20         7.7440    1.0100   -2.4210 ca        1 156     -0.073000
     21 C21        11.6880   -2.0010   -3.1300 c3        1 156     -0.085600
     22 C22        12.6770    0.2740   -3.1000 c3        1 156     -0.085600
     23 C23         9.4730    2.3200   -6.0530 c3        1 156     -0.085100
     24 C24         8.8870   -0.0480   -6.5050 c3        1 156     -0.085100
     25 O1          1.2580   -1.7090   -2.9130 o         1 156     -0.825800
     26 O2          2.6480   -3.4350   -2.6280 o         1 156     -0.825800
     27 O3          8.7640   -0.6260    0.6350 o         1 156     -0.551100
     28 H3          2.0070    0.4000   -1.8860 ha        1 156      0.155500
     29 H4          3.5810    1.9110   -0.6410 ha        1 156      0.113500
     30 H8          5.4290    2.1090    0.8680 ha        1 156      0.112000
     31 H9          7.8120    1.9890    1.0890 ha        1 156      0.131000
     32 H6          6.3370   -1.3900   -0.1660 ha        1 156      0.113500
     33 H7          4.7370   -2.8800   -1.4030 ha        1 156      0.155500
     34 H12        10.4750   -0.6220   -1.2160 ha        1 156      0.145000
     35 H151       11.0990   -1.5380   -5.5750 hc        1 156      0.041200
     36 H152       12.7680   -0.8520   -5.4570 hc        1 156      0.041200
     37 H161       11.8290    1.4680   -5.5250 hc        1 156      0.037700
     38 H162       11.3980    0.5040   -6.9930 hc        1 156      0.037700
     39 H19         7.4490    1.6190   -4.4620 ha        1 156      0.136000
     40 H20         6.7530    1.3690   -2.0950 ha        1 156      0.159000
     41 H211       10.7740   -2.5960   -3.3660 hc        1 156      0.035867
     42 H212       12.5730   -2.5020   -3.5920 hc        1 156      0.035867
     43 H213       11.8310   -1.9900   -2.0240 hc        1 156      0.035867
     44 H221       12.5730    0.3420   -1.9900 hc        1 156      0.035867
     45 H222       12.6430    1.3060   -3.5230 hc        1 156      0.035867
     46 H223       13.6670   -0.1810   -3.3410 hc        1 156      0.035867
     47 H231        9.9130    2.5130   -7.0610 hc        1 156      0.037033
     48 H232        9.9300    3.0260   -5.3200 hc        1 156      0.037033
     49 H233        8.3760    2.5220   -6.1070 hc        1 156      0.037033
     50 H241        9.0950   -1.1180   -6.2640 hc        1 156      0.037033
     51 H242        7.8030    0.1490   -6.3230 hc        1 156      0.037033
     52 H243        9.1080    0.1270   -7.5850 hc        1 156      0.037033
@<TRIPOS>BOND
     1    1    2 1   
     2    1   25 1   
     3    1   26 1   
     4    2    3 ar  
     5    2    9 ar  
     6    3    4 ar  
     7    3   28 1   
     8    4    5 ar  
     9    4   29 1   
    10    5    6 1   
    11    5    8 ar  
    12    6    7 2   
    13    6   30 1   
    14    7   10 1   
    15    7   31 1   
    16    8    9 ar  
    17    8   32 1   
    18    9   33 1   
    19   10   11 1   
    20   10   27 2   
    21   11   12 ar  
    22   11   20 ar  
    23   12   13 ar  
    24   12   34 1   
    25   13   14 1   
    26   13   18 ar  
    27   14   15 1   
    28   14   21 1   
    29   14   22 1   
    30   15   16 1   
    31   15   35 1   
    32   15   36 1   
    33   16   17 1   
    34   16   37 1   
    35   16   38 1   
    36   17   18 1   
    37   17   23 1   
    38   17   24 1   
    39   18   19 ar  
    40   19   20 ar  
    41   19   39 1   
    42   20   40 1   
    43   21   41 1   
    44   21   42 1   
    45   21   43 1   
    46   22   44 1   
    47   22   45 1   
    48   22   46 1   
    49   23   47 1   
    50   23   48 1   
    51   23   49 1   
    52   24   50 1   
    53   24   51 1   
    54   24   52 1   
@<TRIPOS>SUBSTRUCTURE
     1 156         1 TEMP              0 ****  ****    0 ROOT
