@<TRIPOS>MOLECULE
157
   39    39     1     0     0
SMALL
bcc


@<TRIPOS>ATOM
      1 C1          -0.4950    -0.2580     0.6850 c3         1 157      -0.076400
      2 C2           0.4030     0.4740     1.6610 c3         1 157      -0.098400
      3 C3           0.5130    -0.2130     3.0040 c3         1 157      -0.090400
      4 C4           1.2440    -1.5400     2.9920 c3         1 157      -0.127700
      5 C5           2.6900    -1.3780     2.5460 c2         1 157       0.561200
      6 N6           2.8730    -1.7170     1.0770 nz         1 157      -0.889600
      7 N7           3.6140    -0.9930     3.3250 n2         1 157      -0.689100
      8 O8           1.7290    -0.3460    -1.0180 o          1 157      -0.651100
      9 O9          -1.0280    -0.0560    -3.7880 oh         1 157      -0.619800
     10 C10         -1.7260    -0.0540    -1.4970 c3         1 157      -0.066700
     11 C11         -4.0880     0.4720    -1.9230 c3         1 157      -0.077400
     12 C12         -3.0730     0.1980    -0.8200 c3         1 157      -0.077400
     13 C13         -1.8310     0.6590    -2.8620 c3         1 157       0.136100
     14 C14         -3.3190     0.6710    -3.2210 c3         1 157      -0.114400
     15 C16         -0.5390     0.4330    -0.6710 c3         1 157      -0.183700
     16 C15          0.7290     0.2350    -1.4630 c          1 157       0.625900
     17 H11         -1.5320    -0.3090     1.1120 hc         1 157       0.048700
     18 H12         -0.1450    -1.3150     0.5450 hc         1 157       0.048700
     19 H21         -0.0160     1.5040     1.8340 hc         1 157       0.052200
     20 H22          1.4210     0.6160     1.2110 hc         1 157       0.052200
     21 H31          1.0280     0.4800     3.7240 hc         1 157       0.080700
     22 H32         -0.5200    -0.4020     3.4080 hc         1 157       0.080700
     23 H41          1.2500    -1.9630     4.0370 hc         1 157       0.093200
     24 H42          0.7070    -2.2820     2.3430 hc         1 157       0.093200
     25 HN61         3.1320    -2.6990     0.9710 hn         1 157       0.468133
     26 HN62         3.5780    -1.1290     0.6230 hn         1 157       0.468133
     27 HN7          4.5610    -0.8670     3.0390 hn         1 157       0.456400
     28 H10         -1.6030    -1.1560    -1.6860 hc         1 157       0.075700
     29 H111        -4.8000    -0.3860    -2.0210 hc         1 157       0.058200
     30 H112        -4.6940     1.3800    -1.6770 hc         1 157       0.058200
     31 H121        -3.0050     1.0780    -0.1310 hc         1 157       0.049200
     32 H122        -3.3780    -0.6880    -0.2090 hc         1 157       0.049200
     33 H13         -1.4360     1.7110    -2.7910 h1         1 157       0.040700
     34 H141        -3.5950     1.6370    -3.7110 hc         1 157       0.062200
     35 H142        -3.5460    -0.1540    -3.9430 hc         1 157       0.062200
     36 H16         -0.6460     1.5460    -0.5090 hc         1 157       0.092700
     37 H15          0.7220     0.6460    -2.5000 h4         1 157       0.058200
     38 H63          1.9760    -1.5470     0.5820 hn         1 157       0.468133
     39 HO9         -1.3640     0.1340    -4.6720 ho         1 157       0.423000
@<TRIPOS>BOND
     1     1     2 1   
     2     1    15 1   
     3     1    17 1   
     4     1    18 1   
     5     2     3 1   
     6     2    19 1   
     7     2    20 1   
     8     3     4 1   
     9     3    21 1   
    10     3    22 1   
    11     4     5 1   
    12     4    23 1   
    13     4    24 1   
    14     5     6 1   
    15     5     7 2   
    16     6    25 1   
    17     6    26 1   
    18     6    38 1   
    19     7    27 1   
    20     8    16 2   
    21     9    13 1   
    22     9    39 1   
    23    10    12 1   
    24    10    13 1   
    25    10    15 1   
    26    10    28 1   
    27    11    12 1   
    28    11    14 1   
    29    11    29 1   
    30    11    30 1   
    31    12    31 1   
    32    12    32 1   
    33    13    14 1   
    34    13    33 1   
    35    14    34 1   
    36    14    35 1   
    37    15    16 1   
    38    15    36 1   
    39    16    37 1   
@<TRIPOS>SUBSTRUCTURE
     1 157         1 TEMP              0 ****  ****    0 ROOT
