@<TRIPOS>MOLECULE
157
   39    39     1     0     0
SMALL
bcc


@<TRIPOS>ATOM
      1 C1           0.0000     0.0000     0.0000 c3         1 157      -0.020400
      2 C2           1.5290     0.0000     0.0000 c3         1 157      -0.027400
      3 C3           2.0410     0.0000     1.4410 c3         1 157      -0.035400
      4 C4           3.5700    -0.0010     1.4420 c3         1 157      -0.076700
      5 C5           4.0740    -0.0000     2.8600 c2         1 157       0.113200
      6 N6           5.4210    -0.0000     3.1110 nz         1 157       0.195400
      7 N7           3.2350     0.0010     3.8440 n2         1 157      -0.469100
      8 O8           0.6850    -1.1210    -3.1330 o          1 157      -0.550100
      9 O9          -2.9270    -1.3000    -3.3110 oh         1 157      -0.589800
     10 C10         -2.0410    -0.0000    -1.4400 c3         1 157      -0.044700
     11 C11         -3.3980     2.0270    -1.8250 c3         1 157      -0.018400
     12 C12         -2.5670     1.2770    -0.7640 c3         1 157      -0.028400
     13 C13         -2.5700     0.0170    -2.8890 c3         1 157       0.182100
     14 C14         -3.8250     0.9230    -2.8240 c3         1 157      -0.058400
     15 C16         -0.5110    -0.0010    -1.4410 c3         1 157      -0.177700
     16 C15         -0.0090    -1.2310    -2.1520 c          1 157       0.660900
     17 H11         -0.3610    -0.8840     0.5110 hc         1 157       0.026200
     18 H12         -0.3610     0.8850     0.5110 hc         1 157       0.026200
     19 H21          1.8900     0.8840    -0.5110 hc         1 157       0.029200
     20 H22          1.8900    -0.8840    -0.5110 hc         1 157       0.029200
     21 H31          1.6810     0.8850     1.9520 hc         1 157       0.026200
     22 H32          1.6800    -0.8840     1.9520 hc         1 157       0.026200
     23 H41          3.9320     0.8830     0.9300 hc         1 157       0.051200
     24 H42          3.9310    -0.8860     0.9310 hc         1 157       0.051200
     25 HN61         5.8360     0.8170     2.7090 hn         1 157       0.219800
     26 HN62         5.8360    -0.8170     2.7070 hn         1 157       0.219800
     27 HN7          2.2500     0.0010     3.6640 hn         1 157       0.390400
     28 H10         -2.4160    -0.8730    -0.9210 hc         1 157       0.048700
     29 H111        -2.7890     2.7720    -2.3240 hc         1 157       0.019700
     30 H112        -4.2690     2.4830    -1.3700 hc         1 157       0.019700
     31 H121        -3.1950     1.0170     0.0800 hc         1 157       0.017200
     32 H122        -1.7370     1.8940    -0.4410 hc         1 157       0.017200
     33 H13         -1.8310     0.4460    -3.5550 h1         1 157       0.016700
     34 H141        -4.0390     1.3490    -3.7960 hc         1 157       0.030200
     35 H142        -4.6750     0.3710    -2.4420 hc         1 157       0.030200
     36 H16         -0.1500     0.8840    -1.9520 hc         1 157       0.056700
     37 H15         -0.2660    -2.2150    -1.7770 h4         1 157      -0.028800
     38 H63          5.5770     0.0300     4.0990 hn         1 157       0.219800
     39 HO9         -3.0410    -1.3110    -4.2460 ho         1 157       0.402000
@<TRIPOS>BOND
     1     1     2 1   
     2     1    15 1   
     3     1    17 1   
     4     1    18 1   
     5     2     3 1   
     6     2    19 1   
     7     2    20 1   
     8     3     4 1   
     9     3    21 1   
    10     3    22 1   
    11     4     5 1   
    12     4    23 1   
    13     4    24 1   
    14     5     6 1   
    15     5     7 2   
    16     6    25 1   
    17     6    26 1   
    18     6    38 1   
    19     7    27 1   
    20     8    16 2   
    21     9    13 1   
    22     9    39 1   
    23    10    12 1   
    24    10    13 1   
    25    10    15 1   
    26    10    28 1   
    27    11    12 1   
    28    11    14 1   
    29    11    29 1   
    30    11    30 1   
    31    12    31 1   
    32    12    32 1   
    33    13    14 1   
    34    13    33 1   
    35    14    34 1   
    36    14    35 1   
    37    15    16 1   
    38    15    36 1   
    39    16    37 1   
@<TRIPOS>SUBSTRUCTURE
     1 157         1 TEMP              0 ****  ****    0 ROOT
