@<TRIPOS>MOLECULE
158
   23    22     1     0     0
SMALL
bcc


@<TRIPOS>ATOM
      1 O13          0.0000     0.0000     0.0000 o          1 158      -0.652100
      2 C5           1.2120     0.0000     0.0000 c          1 158       0.594100
      3 C6           1.9650     0.0000     1.3050 c3         1 158       0.033700
      4 S7           0.7860    -0.0000     2.6850 sh         1 158      -0.360900
      5 N4           1.8860    -0.0010    -1.1670 ns         1 158      -0.096900
      6 C3           1.1550    -0.0000    -2.4350 c3         1 158      -0.064300
      7 C2           0.9030    -1.4210    -2.8700 c          1 158       0.605100
      8 O8           1.6820    -2.2920    -2.5650 o          1 158      -0.595100
      9 C1          -0.3190    -1.7550    -3.6840 c3         1 158      -0.093100
     10 C9           1.9820     0.7210    -3.5010 c3         1 158      -0.140400
     11 C10          2.2330     2.1420    -3.0660 c          1 158       0.973600
     12 O11          1.7950     2.5360    -2.0110 o          1 158      -0.890800
     13 O12          2.9430     2.9680    -3.8490 o          1 158      -0.890800
     14 H61          2.5880    -0.8840     1.3630 h1         1 158       0.039700
     15 H62          2.5880     0.8850     1.3630 h1         1 158       0.039700
     16 H7           1.4500    -0.0070     3.8340 hs         1 158       0.146800
     17 H4           2.8860    -0.0320    -1.1660 hn         1 158       0.170500
     18 H3           0.2090     0.5110    -2.3060 h1         1 158       0.084700
     19 H11         -0.0180    -2.0750    -4.6740 hc         1 158       0.020367
     20 H12A        -0.8690    -2.5520    -3.1990 hc         1 158       0.020367
     21 H13         -0.9500    -0.8780    -3.7650 hc         1 158       0.020367
     22 H91          1.4400     0.7200    -4.4390 hc         1 158       0.018200
     23 H92          2.9280     0.2100    -3.6300 hc         1 158       0.018200
@<TRIPOS>BOND
     1     1     2 2   
     2     2     3 1   
     3     2     5 1   
     4     3     4 1   
     5     3    14 1   
     6     3    15 1   
     7     4    16 1   
     8     5     6 1   
     9     5    17 1   
    10     6     7 1   
    11     6    10 1   
    12     6    18 1   
    13     7     8 2   
    14     7     9 1   
    15     9    19 1   
    16     9    20 1   
    17     9    21 1   
    18    10    11 1   
    19    10    22 1   
    20    10    23 1   
    21    11    12 1   
    22    11    13 1   
@<TRIPOS>SUBSTRUCTURE
     1 158         1 TEMP              0 ****  ****    0 ROOT
