@<TRIPOS>MOLECULE
molecule
   28    28     1     0     0
SMALL
bcc


@<TRIPOS>ATOM
      1 O5           0.0000     0.0000     0.0000 o          1 159      -0.774800
      2 C12          1.2330     0.0000     0.0000 c          1 159       0.932200
      3 O4           1.8280     0.0000     1.0890 o          1 159      -0.774800
      4 C8           1.9690     0.0190    -1.3110 ca         1 159      -0.190600
      5 C9           3.3410     0.1500    -1.3540 ca         1 159       0.297100
      6 C10          4.0260     0.1780    -2.5650 ca         1 159      -0.273000
      7 C11          3.3220     0.0780    -3.7590 ca         1 159       0.051000
      8 O3           4.0060     0.2400    -0.2210 oh         1 159      -0.389100
      9 C7           1.2670    -0.0730    -2.5090 ca         1 159       0.030000
     10 C6           1.9350    -0.0490    -3.7370 ca         1 159      -0.677500
     11 S2           1.0930    -0.1650    -5.1050 sy         1 159       1.557200
     12 O1           0.0640    -1.3510    -4.9580 o          1 159      -0.592800
     13 O2           2.0780    -0.3890    -6.3220 o          1 159      -0.592800
     14 N1           0.3080     1.2090    -5.3660 ny         1 159      -0.678900
     15 C5           1.0930     2.4080    -5.6180 c3         1 159       0.143800
     16 C4           0.7410     3.0770    -6.9430 c3         1 159      -0.029300
     17 S1          -1.0610     3.1780    -7.1500 sh         1 159      -0.372900
     18 H10          5.1090     0.2030    -2.5750 ha         1 159       0.151000
     19 H11          3.8510     0.0990    -4.7050 ha         1 159       0.145000
     20 HO3          4.5600     1.0030    -0.2410 ho         1 159       0.426000
     21 H7           0.1880    -0.1710    -2.4890 ha         1 159       0.184000
     22 H1          -0.2940     1.0690    -6.1530 hn         1 159       0.426800
     23 H51          0.9200     3.1140    -4.8140 hx         1 159       0.079200
     24 H52          2.1430     2.1430    -5.6290 hx         1 159       0.079200
     25 H41          1.1590     4.0760    -6.9600 h1         1 159       0.094700
     26 H42          1.1620     2.5000    -7.7570 h1         1 159       0.094700
     27 HS1         -1.3450     4.0000    -8.1530 hs         1 159       0.226800
     28 H12         -0.2730     1.3820    -4.5700 hn         1 159       0.426800
@<TRIPOS>BOND
     1     1     2 1   
     2     2     3 1   
     3     2     4 1   
     4     4     5 ar  
     5     4     9 ar  
     6     5     6 ar  
     7     5     8 1   
     8     6     7 ar  
     9     6    18 1   
    10     7    10 ar  
    11     7    19 1   
    12     8    20 1   
    13     9    10 ar  
    14     9    21 1   
    15    10    11 1   
    16    11    12 2   
    17    11    13 2   
    18    11    14 1   
    19    14    15 1   
    20    14    22 1   
    21    15    16 1   
    22    15    23 1   
    23    15    24 1   
    24    16    17 1   
    25    16    25 1   
    26    16    26 1   
    27    17    27 1   
    28    28    14 1   
@<TRIPOS>SUBSTRUCTURE
     1 159         1 TEMP              0 ****  ****    0 ROOT
