@<TRIPOS>MOLECULE
159
   27    27     1     0     0
SMALL
bcc


@<TRIPOS>ATOM
      1 O5           0.0000     0.0000     0.0000 o          1 159      -0.873300
      2 C12          1.3470     0.0000     0.0000 c          1 159       0.974200
      3 O4           1.9540     0.0000     1.0520 o          1 159      -0.873300
      4 C8           2.0840     0.0010    -1.2760 ca         1 159      -0.163600
      5 C9           3.4850     0.0070    -1.2800 ca         1 159       0.210100
      6 C10          4.1690     0.0020    -2.4870 ca         1 159      -0.247000
      7 C11          3.4700     0.0020    -3.6780 ca         1 159      -0.002000
      8 O3           4.1700     0.0080    -0.1100 oh         1 159      -0.440100
      9 C7           1.3910     0.0010    -2.4880 ca         1 159       0.065000
     10 C6           2.0860     0.0010    -3.6780 ca         1 159      -0.217500
     11 S2           1.2090     0.0010    -5.2050 sy         1 159       1.043200
     12 O1           2.1120    -0.5240    -6.1680 o          1 159      -0.596300
     13 O2          -0.0770    -0.5260    -4.9130 o          1 159      -0.596300
     14 N1           0.9630     1.5800    -5.6350 n7         1 159      -0.596100
     15 C5           2.1070     2.4690    -5.8470 c3         1 159       0.250800
     16 C4           1.6060     3.8620    -6.2330 c3         1 159       0.094700
     17 S1           3.0230     4.9640    -6.4940 sh         1 159      -0.405900
     18 H10          5.2530     0.0040    -2.4950 ha         1 159       0.099000
     19 H11          4.0090    -0.0000    -4.6180 ha         1 159       0.105000
     20 HO3          4.8010     0.7080    -0.1150 ho         1 159       0.377000
     21 H7           0.3080     0.0010    -2.4930 ha         1 159       0.150000
     22 H1           0.0320     1.9230    -5.7690 hn         1 159       0.342800
     23 H51          2.6880     2.5340    -4.9350 h1         1 159       0.028700
     24 H52          2.7270     2.0750    -6.6430 h1         1 159       0.028700
     25 H41          1.0260     3.7970    -7.1460 h1         1 159       0.032200
     26 H42          0.9840     4.2560    -5.4380 h1         1 159       0.032200
     27 HS1          2.5890     6.1730    -6.8280 hs         1 159       0.177800
@<TRIPOS>BOND
     1     1     2 1   
     2     2     3 1   
     3     2     4 1   
     4     4     5 ar  
     5     4     9 ar  
     6     5     6 ar  
     7     5     8 1   
     8     6     7 ar  
     9     6    18 1   
    10     7    10 ar  
    11     7    19 1   
    12     8    20 1   
    13     9    10 ar  
    14     9    21 1   
    15    10    11 1   
    16    11    12 2   
    17    11    13 2   
    18    11    14 1   
    19    14    15 1   
    20    14    22 1   
    21    15    16 1   
    22    15    23 1   
    23    15    24 1   
    24    16    17 1   
    25    16    25 1   
    26    16    26 1   
    27    17    27 1   
@<TRIPOS>SUBSTRUCTURE
     1 159         1 TEMP              0 ****  ****    0 ROOT
