@<TRIPOS>MOLECULE
molecule
   33    33     1     0     0
SMALL
bcc


@<TRIPOS>ATOM
      1 O6           0.0000     0.0000     0.0000 oh         1 15A      -0.629800
      2 C6           1.4290     0.0000     0.0000 c3         1 15A       0.129400
      3 C5           1.9400     0.0000     1.4420 c3         1 15A       0.240500
      4 C4           3.4660     0.1250     1.4460 c3         1 15A       0.131100
      5 O4           3.8430     1.3820     0.8800 oh         1 15A      -0.594800
      6 C3           3.9830     0.0390     2.8850 c3         1 15A       0.135100
      7 O3           5.4010     0.2060     2.8940 oh         1 15A      -0.577800
      8 C2           3.6240    -1.3320     3.4710 c3         1 15A       0.092800
      9 O2           4.3220    -2.3550     2.7590 oh         1 15A      -0.573800
     10 N5           1.5660    -1.2620     2.0980 nu         1 15A      -0.938200
     11 C1           2.1310    -1.5370     3.3270 c2         1 15A       0.662200
     12 N1           1.4120    -1.9550     4.3180 n2         1 15A      -0.687900
     13 C7          -0.0300    -2.1440     4.1480 c3         1 15A       0.099800
     14 C8          -0.3710    -3.6290     4.2970 c3         1 15A       0.086800
     15 N2          -1.8180    -3.8190     4.1260 nz         1 15A      -0.811600
     16 H6          -0.3140     0.2220    -0.8610 ho         1 15A       0.421000
     17 H6C1         1.7900     0.8840    -0.5110 h1         1 15A       0.048700
     18 H6C2         1.7900    -0.8840    -0.5110 h1         1 15A       0.048700
     19 H5           1.5080     0.8320     1.9850 h1         1 15A       0.078700
     20 H4           3.8940    -0.6820     0.8630 h1         1 15A       0.073700
     21 HA           0.9260    -1.9000     1.6670 hn         1 15A       0.446800
     22 HB           4.5110     1.2450     0.2280 ho         1 15A       0.425000
     23 H3           3.5190     0.8170     3.4800 h1         1 15A       0.059700
     24 HC           5.6500     0.7460     3.6270 ho         1 15A       0.416000
     25 H2           3.8950    -1.3600     4.5190 h1         1 15A       0.074700
     26 HD           4.7070    -2.9590     3.3720 ho         1 15A       0.419000
     27 H7C1        -0.3260    -1.8030     3.1630 h1         1 15A       0.061700
     28 H7C2        -0.5610    -1.5750     4.9020 h1         1 15A       0.061700
     29 H8C1         0.1590    -4.1990     3.5430 hx         1 15A       0.116700
     30 H8C2        -0.0750    -3.9700     5.2820 hx         1 15A       0.116700
     31 H2N1        -2.0450    -4.7840     4.2580 hn         1 15A       0.456133
     32 H2N2        -2.0850    -3.5350     3.2040 hn         1 15A       0.456133
     33 H23         -2.3080    -3.2650     4.8010 hn         1 15A       0.456133
@<TRIPOS>BOND
     1     1     2 1   
     2     2     3 1   
     3     3     4 1   
     4     3    10 1   
     5     4     5 1   
     6     4     6 1   
     7     6     7 1   
     8     6     8 1   
     9     8     9 1   
    10     8    11 1   
    11    10    11 1   
    12    11    12 2   
    13    12    13 1   
    14    13    14 1   
    15    14    15 1   
    16     1    16 1   
    17     2    17 1   
    18     2    18 1   
    19     3    19 1   
    20     4    20 1   
    21    10    21 1   
    22     5    22 1   
    23     6    23 1   
    24     7    24 1   
    25     8    25 1   
    26     9    26 1   
    27    13    27 1   
    28    13    28 1   
    29    14    29 1   
    30    14    30 1   
    31    15    31 1   
    32    15    32 1   
    33    33    15 1   
@<TRIPOS>SUBSTRUCTURE
     1 15A         1 TEMP              0 ****  ****    0 ROOT
