@<TRIPOS>MOLECULE
15A
   33    33     1     0     0
SMALL
bcc


@<TRIPOS>ATOM
      1 O6           0.0000     0.0000     0.0000 oh         1 15A      -0.615800
      2 C6           1.4290     0.0000     0.0000 c3         1 15A       0.214400
      3 C5           1.9400     0.0000     1.4420 c3         1 15A       0.132500
      4 C4           3.4660     0.1250     1.4460 c3         1 15A       0.166100
      5 O4           3.8430     1.3820     0.8800 oh         1 15A      -0.573800
      6 C3           3.9830     0.0390     2.8850 c3         1 15A       0.164100
      7 O3           5.4010     0.2060     2.8940 oh         1 15A      -0.559800
      8 C2           3.6240    -1.3320     3.4710 c3         1 15A       0.129800
      9 O2           4.3220    -2.3550     2.7590 oh         1 15A      -0.562800
     10 N5           1.5660    -1.2620     2.0980 nu         1 15A      -0.544200
     11 C1           2.1310    -1.5370     3.3270 c2         1 15A       0.514200
     12 N1           1.4120    -1.9550     4.3180 n2         1 15A      -0.637900
     13 C7          -0.0300    -2.1440     4.1480 c3         1 15A       0.154800
     14 C8          -0.3710    -3.6290     4.2970 c3         1 15A      -0.061200
     15 N2          -1.8180    -3.8190     4.1260 nz         1 15A       0.089400
     16 H6          -0.3140     0.2220    -0.8610 ho         1 15A       0.411000
     17 H6C1         1.7900     0.8840    -0.5110 h1         1 15A       0.010700
     18 H6C2         1.7900    -0.8840    -0.5110 h1         1 15A       0.010700
     19 H5           1.5080     0.8320     1.9850 h1         1 15A       0.051700
     20 H4           3.8940    -0.6820     0.8630 h1         1 15A       0.035700
     21 HA           0.9260    -1.9000     1.6670 hn         1 15A       0.305800
     22 HB           4.5110     1.2450     0.2280 ho         1 15A       0.410000
     23 H3           3.5190     0.8170     3.4800 h1         1 15A       0.021700
     24 HC           5.6500     0.7460     3.6270 ho         1 15A       0.400000
     25 H2           3.8950    -1.3600     4.5190 h1         1 15A       0.033700
     26 HD           4.7070    -2.9590     3.3720 ho         1 15A       0.405000
     27 H7C1        -0.5610    -1.5750     4.9020 h1         1 15A       0.025700
     28 H7C2        -0.3260    -1.8030     3.1630 h1         1 15A       0.025700
     29 H8C1         0.1590    -4.1990     3.5430 hx         1 15A       0.089200
     30 H8C2        -0.0750    -3.9700     5.2820 hx         1 15A       0.089200
     31 H2N1        -2.3080    -3.2700     4.8050 hn         1 15A       0.221467
     32 H2N2        -2.0440    -4.7850     4.2510 hn         1 15A       0.221467
     33 H23         -2.0860    -3.5290     3.2070 hn         1 15A       0.221467
@<TRIPOS>BOND
     1     1     2 1   
     2     1    16 1   
     3     2     3 1   
     4     2    17 1   
     5     2    18 1   
     6     3     4 1   
     7     3    10 1   
     8     3    19 1   
     9     4     5 1   
    10     4     6 1   
    11     4    20 1   
    12     5    22 1   
    13     6     7 1   
    14     6     8 1   
    15     6    23 1   
    16     7    24 1   
    17     8     9 1   
    18     8    11 1   
    19     8    25 1   
    20     9    26 1   
    21    10    11 1   
    22    10    21 1   
    23    11    12 2   
    24    12    13 1   
    25    13    14 1   
    26    13    27 1   
    27    13    28 1   
    28    14    15 1   
    29    14    29 1   
    30    14    30 1   
    31    15    31 1   
    32    15    32 1   
    33    15    33 1   
@<TRIPOS>SUBSTRUCTURE
     1 15A         1 TEMP              0 ****  ****    0 ROOT
