@<TRIPOS>MOLECULE
15A
   33    33     1     0     0
SMALL
bcc


@<TRIPOS>ATOM
      1 O6          -0.3700    -0.2920     0.3170 oh         1 15A      -0.652800
      2 C6           1.0410    -0.2090     0.1510 c3         1 15A       0.111400
      3 C5           1.6670     0.0450     1.5420 c3         1 15A       0.175500
      4 C4           1.5560    -1.2790     2.3510 c3         1 15A       0.115100
      5 O4           2.5220    -2.1940     1.8840 oh         1 15A      -0.565800
      6 C3           1.6560    -1.1040     3.8750 c3         1 15A       0.112100
      7 O3           0.3760    -1.4460     4.4030 oh         1 15A      -0.649800
      8 C2           1.9890     0.3460     4.2950 c3         1 15A       0.079800
      9 O2           1.8910     0.3540     5.7000 oh         1 15A      -0.586800
     10 N5           1.0930     1.2060     2.1860 nu         1 15A      -0.847200
     11 C1           0.9440     1.2250     3.5750 c2         1 15A       0.607200
     12 N1           0.0240     1.8380     4.2760 n2         1 15A      -0.706900
     13 C7          -1.1400     2.4010     3.6640 c3         1 15A       0.099800
     14 C8          -2.0790     1.3650     2.9930 c3         1 15A       0.070800
     15 N2          -2.1380     0.0730     3.7330 nz         1 15A      -0.836600
     16 H6          -0.7270    -0.6190    -0.5180 ho         1 15A       0.432000
     17 H6C1         1.2840     0.6340    -0.5500 h1         1 15A       0.067700
     18 H6C2         1.4510    -1.1740    -0.2500 h1         1 15A       0.067700
     19 H5           2.7670     0.2610     1.3740 h1         1 15A       0.082700
     20 H4           0.5710    -1.7800     2.1080 h1         1 15A       0.106700
     21 HA           0.4190     1.6940     1.6360 hn         1 15A       0.425800
     22 HB           3.4000    -1.8470     2.0970 ho         1 15A       0.413000
     23 H3           2.4340    -1.8000     4.2970 h1         1 15A       0.097700
     24 HC           0.4770    -1.4750     5.3660 ho         1 15A       0.449000
     25 H2           3.0240     0.6450     3.9710 h1         1 15A       0.087700
     26 HD           1.9990     1.2660     6.0040 ho         1 15A       0.445000
     27 H7C1        -0.9220     3.1850     2.8810 h1         1 15A       0.088700
     28 H7C2        -1.7020     2.9110     4.5000 h1         1 15A       0.088700
     29 H8C1        -3.1190     1.7980     2.9490 hx         1 15A       0.109700
     30 H8C2        -1.7360     1.1310     1.9420 hx         1 15A       0.109700
     31 H2N1        -2.8690    -0.5250     3.3420 hn         1 15A       0.467133
     32 H2N2        -2.3320     0.2470     4.7250 hn         1 15A       0.467133
     33 H23         -1.2290    -0.4210     3.6690 hn         1 15A       0.467133
@<TRIPOS>BOND
     1     1     2 1   
     2     1    16 1   
     3     2     3 1   
     4     2    17 1   
     5     2    18 1   
     6     3     4 1   
     7     3    10 1   
     8     3    19 1   
     9     4     5 1   
    10     4     6 1   
    11     4    20 1   
    12     5    22 1   
    13     6     7 1   
    14     6     8 1   
    15     6    23 1   
    16     7    24 1   
    17     8     9 1   
    18     8    11 1   
    19     8    25 1   
    20     9    26 1   
    21    10    11 1   
    22    10    21 1   
    23    11    12 2   
    24    12    13 1   
    25    13    14 1   
    26    13    27 1   
    27    13    28 1   
    28    14    15 1   
    29    14    29 1   
    30    14    30 1   
    31    15    31 1   
    32    15    32 1   
    33    15    33 1   
@<TRIPOS>SUBSTRUCTURE
     1 15A         1 TEMP              0 ****  ****    0 ROOT
