@<TRIPOS>MOLECULE
molecule
   75    77     1     0     0
SMALL
bcc


@<TRIPOS>ATOM
      1 C1           0.0000     0.0000     0.0000 c3         1 15B       0.346900
      2 O1          -0.4900     0.1100    -1.3370 os         1 15B      -0.303900
      3 C7          -1.6950    -0.4840    -1.5980 ca         1 15B       0.094100
      4 C8          -1.7760    -1.4890    -2.5570 ca         1 15B      -0.048000
      5 C9          -3.0040    -2.0940    -2.8220 ca         1 15B      -0.161200
      6 N14         -3.0930    -3.1200    -3.8010 no         1 15B       0.275200
      7 O15         -4.2080    -3.6510    -4.0250 o          1 15B      -0.192000
      8 O16         -2.0550    -3.4660    -4.4140 o          1 15B      -0.192000
      9 C10         -4.1450    -1.6920    -2.1280 ca         1 15B      -0.016000
     10 C11         -4.0580    -0.6840    -1.1670 ca         1 15B      -0.147600
     11 C12         -2.8290    -0.0780    -0.9020 ca         1 15B      -0.096000
     12 C13         -5.2470    -0.2620    -0.4440 c          1 15B       0.674700
     13 N18         -5.0560     0.2760     0.8340 ns         1 15B      -0.590900
     14 C19         -6.1380     0.7170     1.6840 c3         1 15B       0.122000
     15 C20         -6.6650    -0.3950     2.5870 c3         1 15B      -0.104400
     16 C21         -5.6070    -0.9910     3.5140 c3         1 15B       0.162800
     17 N22         -5.0070     0.0090     4.3950 n3         1 15B      -0.724600
     18 C23         -6.0110     0.5770     5.3020 c3         1 15B       0.165300
     19 C24         -5.3820     1.6230     6.2280 c3         1 15B       0.159300
     20 N25         -4.2700     1.0450     6.9920 n3         1 15B      -0.749600
     21 C28         -3.6690     2.0460     7.8710 c3         1 15B       0.170800
     22 C35         -4.6400     2.5520     8.9340 c3         1 15B      -0.098400
     23 C36         -5.1900     1.4520     9.8410 c3         1 15B       0.077800
     24 N37         -6.0830     1.9610    10.8460 nz         1 15B      -0.797600
     25 C26         -3.2650     0.4770     6.0850 c3         1 15B       0.159300
     26 C27         -3.8950    -0.5700     5.1600 c3         1 15B       0.165300
     27 O17         -6.3750    -0.4030    -0.9480 o          1 15B      -0.583100
     28 C2           1.5300     0.0000     0.0000 c3         1 15B       0.125100
     29 O2           1.9800    -1.1740    -0.6750 oh         1 15B      -0.600800
     30 C3           2.0720     0.0000     1.4280 c3         1 15B       0.125100
     31 O3           3.4860     0.1740     1.3960 oh         1 15B      -0.585800
     32 C4           1.4210     1.1050     2.2620 c3         1 15B       0.105100
     33 O4           1.8580     2.3700     1.7580 oh         1 15B      -0.576800
     34 C5          -0.1040     1.0000     2.1640 c3         1 15B       0.144100
     35 C6          -0.8260     2.1140     2.9110 c3         1 15B       0.149400
     36 O6          -2.2230     1.9350     2.7520 oh         1 15B      -0.607800
     37 O5          -0.5110     1.0710     0.7920 os         1 15B      -0.422600
     38 H1          -0.3440    -0.9360     0.4240 h2         1 15B       0.037700
     39 H2           1.8890     0.8800    -0.5200 h1         1 15B       0.090700
     40 HO2          2.6370    -0.9400    -1.3100 ho         1 15B       0.426000
     41 H3           1.8440    -0.9560     1.8850 h1         1 15B       0.043700
     42 HO3          3.8990    -0.5140     1.8910 ho         1 15B       0.411000
     43 H4           1.7230     1.0000     3.2970 h1         1 15B       0.040700
     44 HO4          2.4490     2.7670     2.3760 ho         1 15B       0.409000
     45 H5          -0.4130     0.0440     2.5690 h1         1 15B       0.044700
     46 H61         -0.5710     2.0720     3.9630 h1         1 15B       0.043200
     47 H62         -0.5340     3.0740     2.5040 h1         1 15B       0.043200
     48 HO6         -2.6340     2.7730     2.6230 ho         1 15B       0.412000
     49 H8          -0.9110    -1.7300    -3.1630 ha         1 15B       0.188000
     50 H10         -5.0980    -2.1620    -2.3340 ha         1 15B       0.193000
     51 H12         -2.7590     0.7050    -0.1570 ha         1 15B       0.169000
     52 H18         -4.1200     0.3600     1.1780 hn         1 15B       0.323500
     53 H191        -6.9490     1.0750     1.0610 h1         1 15B       0.057700
     54 H192        -5.7860     1.5330     2.3030 h1         1 15B       0.057700
     55 H201        -7.4690     0.0050     3.1940 hc         1 15B       0.054700
     56 H202        -7.0630    -1.1860     1.9640 hc         1 15B       0.054700
     57 H211        -6.0680    -1.7610     4.1220 h1         1 15B       0.040200
     58 H212        -4.8270    -1.4400     2.9120 h1         1 15B       0.040200
     59 H231        -6.4370    -0.2180     5.9030 h1         1 15B       0.046200
     60 H232        -6.7930     1.0450     4.7170 h1         1 15B       0.046200
     61 H241        -6.1350     1.9860     6.9170 h1         1 15B       0.041700
     62 H242        -5.0110     2.4480     5.6300 h1         1 15B       0.041700
     63 H261        -2.4830     0.0090     6.6700 h1         1 15B       0.041700
     64 H262        -2.8400     1.2720     5.4840 h1         1 15B       0.041700
     65 H271        -3.1420    -0.9340     4.4710 h1         1 15B       0.046200
     66 H272        -4.2670    -1.3940     5.7570 h1         1 15B       0.046200
     67 H281        -2.8090     1.6080     8.3630 h1         1 15B       0.057700
     68 H282        -3.3380     2.8860     7.2710 h1         1 15B       0.057700
     69 H351        -5.4720     3.0390     8.4390 hc         1 15B       0.061200
     70 H352        -4.1290     3.2830     9.5500 hc         1 15B       0.061200
     71 H361        -4.3610     0.9550    10.3290 hx         1 15B       0.119700
     72 H362        -5.7230     0.7310     9.2320 hx         1 15B       0.119700
     73 H371        -5.5950     2.6150    11.4250 hn         1 15B       0.455800
     74 H372        -6.4190     1.2040    11.4070 hn         1 15B       0.455800
     75 H373        -6.8560     2.4180    10.4040 hn         1 15B       0.455800
@<TRIPOS>BOND
     1     1     2 1   
     2     1    28 1   
     3     1    37 1   
     4     1    38 1   
     5     2     3 1   
     6     3     4 ar  
     7     3    11 ar  
     8     4     5 ar  
     9     4    49 1   
    10     5     6 1   
    11     5     9 ar  
    12     6     7 1   
    13     6     8 1   
    14     9    10 ar  
    15     9    50 1   
    16    10    11 ar  
    17    10    12 1   
    18    11    51 1   
    19    12    13 1   
    20    12    27 2   
    21    13    14 1   
    22    13    52 1   
    23    14    15 1   
    24    14    53 1   
    25    14    54 1   
    26    15    16 1   
    27    15    55 1   
    28    15    56 1   
    29    16    17 1   
    30    16    57 1   
    31    16    58 1   
    32    17    18 1   
    33    17    26 1   
    34    18    19 1   
    35    18    59 1   
    36    18    60 1   
    37    19    20 1   
    38    19    61 1   
    39    19    62 1   
    40    20    21 1   
    41    20    25 1   
    42    21    22 1   
    43    21    67 1   
    44    21    68 1   
    45    22    23 1   
    46    22    69 1   
    47    22    70 1   
    48    23    24 1   
    49    23    71 1   
    50    23    72 1   
    51    24    73 1   
    52    24    74 1   
    53    25    26 1   
    54    25    63 1   
    55    25    64 1   
    56    26    65 1   
    57    26    66 1   
    58    28    29 1   
    59    28    30 1   
    60    28    39 1   
    61    29    40 1   
    62    30    31 1   
    63    30    32 1   
    64    30    41 1   
    65    31    42 1   
    66    32    33 1   
    67    32    34 1   
    68    32    43 1   
    69    33    44 1   
    70    34    35 1   
    71    34    37 1   
    72    34    45 1   
    73    35    36 1   
    74    35    46 1   
    75    35    47 1   
    76    36    48 1   
    77    75    24 1   
@<TRIPOS>SUBSTRUCTURE
     1 15B         1 TEMP              0 ****  ****    0 ROOT
