@<TRIPOS>MOLECULE
15B
   76    78     1     0     0
SMALL
bcc


@<TRIPOS>ATOM
      1 C1          -0.1530    -0.6360    -0.1980 c3         1 15B       0.312900
      2 O1          -0.6800    -1.8680    -0.6920 os         1 15B      -0.314900
      3 C7          -1.4120    -2.6840     0.1390 ca         1 15B       0.164100
      4 C8          -1.7500    -3.9310    -0.4410 ca         1 15B      -0.038000
      5 C9          -2.5760    -4.8000     0.2740 ca         1 15B      -0.154200
      6 N14         -2.9540    -6.1190    -0.3250 no         1 15B       0.317200
      7 O15         -3.7840    -6.7740     0.2420 o          1 15B      -0.172000
      8 O16         -2.4260    -6.4560    -1.3440 o          1 15B      -0.172000
      9 C10         -3.0920    -4.4600     1.5380 ca         1 15B      -0.038000
     10 C11         -2.7500    -3.2200     2.0780 ca         1 15B      -0.177600
     11 C12         -1.8700    -2.3510     1.4150 ca         1 15B      -0.138000
     12 C13         -3.3580    -2.8130     3.3510 c          1 15B       0.575700
     13 N18         -3.8380    -1.3700     3.3870 ny         1 15B      -0.671800
     14 C19         -5.2320    -1.2480     3.9060 c3         1 15B       0.105800
     15 C20         -6.2760    -1.8430     2.9690 c3         1 15B      -0.110400
     16 C21         -7.6600    -1.6890     3.6190 c3         1 15B       0.185800
     17 N22         -8.7160    -2.1930     2.7570 n3         1 15B      -0.744600
     18 C23         -9.9410    -1.4100     2.8260 c3         1 15B       0.172800
     19 C24        -11.0230    -1.9270     1.8570 c3         1 15B       0.163800
     20 N25        -11.2780    -3.3580     1.9880 n3         1 15B      -0.751600
     21 C28        -12.2530    -3.8260     1.0110 c3         1 15B       0.168800
     22 C35        -13.0910    -5.0110     1.5080 c3         1 15B      -0.110400
     23 C36        -13.9490    -4.5820     2.6890 c3         1 15B       0.105800
     24 N37        -14.8880    -5.6550     3.1380 nz         1 15B      -0.841600
     25 C26        -10.0470    -4.1400     1.9570 c3         1 15B       0.163800
     26 C27         -8.9680    -3.6160     2.9250 c3         1 15B       0.172800
     27 O17         -3.5520    -3.4750     4.3590 o          1 15B      -0.406100
     28 C2           0.3260     0.1410    -1.4440 c3         1 15B       0.090100
     29 O2           1.5730    -0.3620    -1.8730 oh         1 15B      -0.585800
     30 C3           0.5630     1.6190    -1.0770 c3         1 15B       0.116100
     31 O3           0.7310     2.3810    -2.2560 oh         1 15B      -0.594800
     32 C4          -0.6560     2.2240    -0.3550 c3         1 15B       0.128100
     33 O4          -1.7850     2.3200    -1.2000 oh         1 15B      -0.598800
     34 C5          -1.0340     1.3290     0.8310 c3         1 15B       0.119100
     35 C6          -2.3430     1.7630     1.4960 c3         1 15B       0.139400
     36 O6          -2.5350     1.0600     2.7170 oh         1 15B      -0.673800
     37 O5          -1.2720    -0.0170     0.4090 os         1 15B      -0.458600
     38 H1           0.6670    -0.8280     0.5460 h2         1 15B       0.075700
     39 H2          -0.4530     0.0690    -2.2520 h1         1 15B       0.094700
     40 HO2          1.4050    -1.1950    -2.3330 ho         1 15B       0.430000
     41 H3           1.4780     1.7000    -0.4260 h1         1 15B       0.069700
     42 HO3          1.5120     2.0330    -2.7110 ho         1 15B       0.443000
     43 H4          -0.3800     3.2510     0.0180 h1         1 15B       0.073700
     44 HO4         -1.4940     2.7600    -2.0130 ho         1 15B       0.445000
     45 H5          -0.1880     1.3330     1.5760 h1         1 15B       0.053700
     46 H61         -2.3300     2.8700     1.6670 h1         1 15B       0.088200
     47 H62         -3.2160     1.4810     0.8480 h1         1 15B       0.088200
     48 HO6         -1.9300     1.4440     3.3640 ho         1 15B       0.420000
     49 H8          -1.3620    -4.1940    -1.4440 ha         1 15B       0.211000
     50 H10         -3.7520    -5.1610     2.0820 ha         1 15B       0.193000
     51 H12         -1.5420    -1.4180     1.9040 ha         1 15B       0.174000
     52 H18         -3.2110    -0.8230     3.9920 hn         1 15B       0.474300
     53 H191        -5.4360    -0.1480     4.0600 hx         1 15B       0.111200
     54 H192        -5.2690    -1.7700     4.9080 hx         1 15B       0.111200
     55 H201        -6.2630    -1.3170     1.9780 hc         1 15B       0.072700
     56 H202        -6.0610    -2.9290     2.7870 hc         1 15B       0.072700
     57 H211        -7.6440    -2.2160     4.6180 h1         1 15B       0.048200
     58 H212        -7.8320    -0.5920     3.8170 h1         1 15B       0.048200
     59 H231       -10.3650    -1.3920     3.8720 h1         1 15B       0.046200
     60 H232        -9.7000    -0.3510     2.5270 h1         1 15B       0.046200
     61 H241       -10.7210    -1.6560     0.8030 h1         1 15B       0.049200
     62 H242       -11.9780    -1.3810     2.0980 h1         1 15B       0.049200
     63 H261        -9.6060    -4.1790     0.9180 h1         1 15B       0.049200
     64 H262       -10.2980    -5.1930     2.2650 h1         1 15B       0.049200
     65 H271        -9.2770    -3.8630     3.9840 h1         1 15B       0.046200
     66 H272        -8.0140    -4.1700     2.7050 h1         1 15B       0.046200
     67 H281       -11.7610    -4.1570     0.0480 h1         1 15B       0.063200
     68 H282       -12.9560    -2.9830     0.7540 h1         1 15B       0.063200
     69 H351       -13.7340    -5.3480     0.6520 hc         1 15B       0.072200
     70 H352       -12.4220    -5.8630     1.7990 hc         1 15B       0.072200
     71 H361       -13.2930    -4.3100     3.5670 hx         1 15B       0.119200
     72 H362       -14.5720    -3.6820     2.4110 hx         1 15B       0.119200
     73 H371       -14.3620    -6.4880     3.4240 hn         1 15B       0.462133
     74 H372       -15.4470    -5.3240     3.9310 hn         1 15B       0.462133
     75 H373       -15.5190    -5.9180     2.3730 hn         1 15B       0.462133
     76 H182        -3.7760    -0.9570     2.4430 hn         1 15B       0.474300
@<TRIPOS>BOND
     1     1     2 1   
     2     1    28 1   
     3     1    37 1   
     4     1    38 1   
     5     2     3 1   
     6     3     4 ar  
     7     3    11 ar  
     8     4     5 ar  
     9     4    49 1   
    10     5     6 1   
    11     5     9 ar  
    12     6     7 1   
    13     6     8 1   
    14     9    10 ar  
    15     9    50 1   
    16    10    11 ar  
    17    10    12 1   
    18    11    51 1   
    19    12    13 1   
    20    12    27 2   
    21    13    14 1   
    22    13    52 1   
    23    13    76 1   
    24    14    15 1   
    25    14    53 1   
    26    14    54 1   
    27    15    16 1   
    28    15    55 1   
    29    15    56 1   
    30    16    17 1   
    31    16    57 1   
    32    16    58 1   
    33    17    18 1   
    34    17    26 1   
    35    18    19 1   
    36    18    59 1   
    37    18    60 1   
    38    19    20 1   
    39    19    61 1   
    40    19    62 1   
    41    20    21 1   
    42    20    25 1   
    43    21    22 1   
    44    21    67 1   
    45    21    68 1   
    46    22    23 1   
    47    22    69 1   
    48    22    70 1   
    49    23    24 1   
    50    23    71 1   
    51    23    72 1   
    52    24    73 1   
    53    24    74 1   
    54    24    75 1   
    55    25    26 1   
    56    25    63 1   
    57    25    64 1   
    58    26    65 1   
    59    26    66 1   
    60    28    29 1   
    61    28    30 1   
    62    28    39 1   
    63    29    40 1   
    64    30    31 1   
    65    30    32 1   
    66    30    41 1   
    67    31    42 1   
    68    32    33 1   
    69    32    34 1   
    70    32    43 1   
    71    33    44 1   
    72    34    35 1   
    73    34    37 1   
    74    34    45 1   
    75    35    36 1   
    76    35    46 1   
    77    35    47 1   
    78    36    48 1   
@<TRIPOS>SUBSTRUCTURE
     1 15B         1 TEMP              0 ****  ****    0 ROOT
