@<TRIPOS>MOLECULE
molecule
   34    36     1     0     0
SMALL
bcc


@<TRIPOS>ATOM
      1 C1           0.0000     0.0000     0.0000 ca         1 15C      -0.007300
      2 C2           1.3860     0.0000     0.0000 ca         1 15C      -0.114000
      3 C3           2.0870     0.0000     1.1920 ca         1 15C      -0.107000
      4 C4           1.4130     0.0010     2.4030 ca         1 15C      -0.064000
      5 C5           0.0270     0.0020     2.4180 ca         1 15C      -0.148600
      6 C6          -0.6880     0.0010     1.2030 ca         1 15C      -0.161600
      7 C7          -2.1180     0.0020     1.5750 c          1 15C       0.730100
      8 C8          -0.9930     0.0020     3.4880 c          1 15C       0.727100
      9 N9          -2.2110     0.0020     2.9170 n          1 15C      -0.379600
     10 C10         -0.7570     0.0060    -1.3040 c3         1 15C      -0.054800
     11 O11         -3.0520     0.0010     0.8000 o          1 15C      -0.572500
     12 O12         -0.7690     0.0020     4.6810 o          1 15C      -0.565500
     13 C13         -3.4140     0.0040     3.6250 ca         1 15C       0.070600
     14 C14         -3.4010     0.0040     5.0170 ca         1 15C      -0.169500
     15 C15         -4.5790     0.0050     5.7160 ca         1 15C      -0.064000
     16 C16         -5.7990     0.0050     5.0290 ca         1 15C      -0.194600
     17 C17         -5.8080     0.0040     3.6280 ca         1 15C      -0.064000
     18 C18         -4.6240     0.0090     2.9370 ca         1 15C      -0.169500
     19 C19         -7.0650     0.0060     5.7730 c          1 15C       0.576700
     20 C20         -8.3730     0.1320     5.0350 c3         1 15C      -0.191100
     21 O21         -7.0570    -0.0950     6.9820 o          1 15C      -0.530100
     22 H2           1.9240    -0.0010    -0.9400 ha         1 15C       0.145000
     23 H3           3.1710    -0.0000     1.1790 ha         1 15C       0.144000
     24 H4           1.9670     0.0010     3.3340 ha         1 15C       0.153000
     25 H10         -0.0550     0.0060    -2.1290 hc         1 15C       0.056367
     26 H10A        -1.3820    -0.8760    -1.3620 hc         1 15C       0.056367
     27 H10B        -1.3770     0.8930    -1.3570 hc         1 15C       0.056367
     28 H14         -2.4570     0.0040     5.5480 ha         1 15C       0.181000
     29 H15         -4.5670     0.0060     6.8000 ha         1 15C       0.149000
     30 H17         -6.7490     0.0060     3.0910 ha         1 15C       0.149000
     31 H18         -4.6300     0.0090     1.8530 ha         1 15C       0.181000
     32 H20         -8.3640     1.0330     4.4340 hc         1 15C       0.061367
     33 H20A        -8.5090    -0.7290     4.3920 hc         1 15C       0.061367
     34 H20B        -9.1870     0.1820     5.7490 hc         1 15C       0.061367
@<TRIPOS>BOND
     1     1     2 ar  
     2     1     6 ar  
     3     1    10 1   
     4     2     3 ar  
     5     3     4 ar  
     6     4     5 ar  
     7     5     6 ar  
     8     5     8 1   
     9     6     7 1   
    10     7     9 1   
    11     7    11 2   
    12     8     9 1   
    13     8    12 2   
    14     9    13 1   
    15    13    14 ar  
    16    13    18 ar  
    17    14    15 ar  
    18    15    16 ar  
    19    16    17 ar  
    20    16    19 1   
    21    17    18 ar  
    22    19    20 1   
    23    19    21 2   
    24     2    22 1   
    25     3    23 1   
    26     4    24 1   
    27    10    25 1   
    28    10    26 1   
    29    10    27 1   
    30    14    28 1   
    31    15    29 1   
    32    17    30 1   
    33    18    31 1   
    34    20    32 1   
    35    20    33 1   
    36    20    34 1   
@<TRIPOS>SUBSTRUCTURE
     1 15C         1 TEMP              0 ****  ****    0 ROOT
