@<TRIPOS>MOLECULE
15C
   34    36     1     0     0
SMALL
bcc


@<TRIPOS>ATOM
      1 C1          -0.0060    -0.0800     0.0730 ca         1 15C       0.004700
      2 C2           1.4050    -0.1980     0.0950 ca         1 15C      -0.122000
      3 C3           2.1150    -0.2430     1.2840 ca         1 15C      -0.111000
      4 C4           1.4560    -0.1740     2.5280 ca         1 15C      -0.066000
      5 C5           0.0850    -0.0610     2.5150 ca         1 15C      -0.136600
      6 C6          -0.6490    -0.0120     1.2960 ca         1 15C      -0.146600
      7 C7          -2.1010     0.1140     1.6410 c          1 15C       0.734100
      8 C8          -0.8840     0.0310     3.6510 c          1 15C       0.729100
      9 N9          -2.1890     0.1360     3.0720 n          1 15C      -0.434600
     10 C10         -0.7180    -0.0340    -1.2220 c3         1 15C      -0.076800
     11 O11         -3.0590     0.1840     0.8700 o          1 15C      -0.562500
     12 O12         -0.6290     0.0200     4.8560 o          1 15C      -0.560500
     13 C13         -3.3890     0.2490     3.8040 ca         1 15C       0.089600
     14 C14         -3.4900    -0.2890     5.1070 ca         1 15C      -0.158500
     15 C15         -4.6730    -0.1690     5.8270 ca         1 15C      -0.067500
     16 C16         -5.7870     0.4760     5.2790 ca         1 15C      -0.190600
     17 C17         -5.6900     1.0060     3.9860 ca         1 15C      -0.067500
     18 C18         -4.5140     0.9030     3.2530 ca         1 15C      -0.158500
     19 C19         -7.0570     0.6160     6.0200 c          1 15C       0.579700
     20 C20         -7.1200     0.0330     7.3970 c3         1 15C      -0.198100
     21 O21         -8.0350     1.1930     5.5260 o          1 15C      -0.539100
     22 H2           1.9400    -0.2540    -0.8670 ha         1 15C       0.145000
     23 H3           3.2130    -0.3350     1.2660 ha         1 15C       0.145000
     24 H4           2.0210    -0.2100     3.4720 ha         1 15C       0.161000
     25 H10         -0.4700    -0.9400    -1.8300 hc         1 15C       0.065033
     26 H10A        -1.8270     0.0070    -1.0780 hc         1 15C       0.065033
     27 H10B        -0.4010     0.8720    -1.8000 hc         1 15C       0.065033
     28 H14         -2.6280    -0.7950     5.5730 ha         1 15C       0.162000
     29 H15         -4.7200    -0.5960     6.8410 ha         1 15C       0.149000
     30 H17         -6.5660     1.5160     3.5490 ha         1 15C       0.149000
     31 H18         -4.4760     1.3240     2.2350 ha         1 15C       0.162000
     32 H20         -6.3510     0.5130     8.0490 hc         1 15C       0.064033
     33 H20A        -6.9260    -1.0670     7.3550 hc         1 15C       0.064033
     34 H20B        -8.1300     0.2040     7.8440 hc         1 15C       0.064033
@<TRIPOS>BOND
     1     1     2 ar  
     2     1     6 ar  
     3     1    10 1   
     4     2     3 ar  
     5     2    22 1   
     6     3     4 ar  
     7     3    23 1   
     8     4     5 ar  
     9     4    24 1   
    10     5     6 ar  
    11     5     8 1   
    12     6     7 1   
    13     7     9 1   
    14     7    11 2   
    15     8     9 1   
    16     8    12 2   
    17     9    13 1   
    18    10    25 1   
    19    10    26 1   
    20    10    27 1   
    21    13    14 ar  
    22    13    18 ar  
    23    14    15 ar  
    24    14    28 1   
    25    15    16 ar  
    26    15    29 1   
    27    16    17 ar  
    28    16    19 1   
    29    17    18 ar  
    30    17    30 1   
    31    18    31 1   
    32    19    20 1   
    33    19    21 2   
    34    20    32 1   
    35    20    33 1   
    36    20    34 1   
@<TRIPOS>SUBSTRUCTURE
     1 15C         1 TEMP              0 ****  ****    0 ROOT
