@<TRIPOS>MOLECULE
15E
   22    23     1     0     0
SMALL
bcc


@<TRIPOS>ATOM
      1 OAM          0.0000     0.0000     0.0000 o          1 15E      -0.731500
      2 CAH          1.2160     0.0000     0.0000 c          1 15E       0.611500
      3 NAG          1.8540     0.0000     1.1770 ns         1 15E      -0.017100
      4 CAD          3.2450     0.0010     1.2860 ca         1 15E      -0.057400
      5 CAC          3.8580     0.0010     2.5330 ca         1 15E      -0.145000
      6 CAB          5.2370     0.0030     2.6210 ca         1 15E      -0.041000
      7 CAA          6.0100     0.0040     1.4720 ca         1 15E       0.000100
      8 Br           7.8970     0.0050     1.6040 br         1 15E      -0.123100
      9 CAF          5.4030     0.0030     0.2280 ca         1 15E      -0.035000
     10 CAE          4.0300     0.0010     0.1390 ca         1 15E      -0.145300
     11 CAJ          3.3300     0.0010    -1.2010 c3         1 15E       0.120300
     12 NAI          1.8580    -0.0040    -1.1830 n          1 15E      -0.161800
     13 CAL          1.1000    -0.0100    -2.4370 c3         1 15E       0.119300
     14 H1           1.3080    -0.0010     2.0160 hn         1 15E       0.188500
     15 H2           3.2560     0.0000     3.4340 ha         1 15E       0.117000
     16 H3           5.7150     0.0030     3.5930 ha         1 15E       0.117000
     17 H4           6.0060     0.0040    -0.6720 ha         1 15E       0.119000
     18 H5           3.6520     0.8820    -1.7440 h1         1 15E       0.015700
     19 H6           3.6580    -0.8750    -1.7470 h1         1 15E       0.015700
     20 H7           0.4760     0.8740    -2.4860 h1         1 15E       0.011367
     21 H8           0.4760    -0.8950    -2.4770 h1         1 15E       0.011367
     22 H9           1.7870    -0.0140    -3.2740 h1         1 15E       0.011367
@<TRIPOS>BOND
     1     1     2 2   
     2     2     3 1   
     3     2    12 1   
     4     3     4 1   
     5     3    14 1   
     6     4     5 ar  
     7     4    10 ar  
     8     5     6 ar  
     9     5    15 1   
    10     6     7 ar  
    11     6    16 1   
    12     7     8 1   
    13     7     9 ar  
    14     9    10 ar  
    15     9    17 1   
    16    10    11 1   
    17    11    12 1   
    18    11    18 1   
    19    11    19 1   
    20    12    13 1   
    21    13    20 1   
    22    13    21 1   
    23    13    22 1   
@<TRIPOS>SUBSTRUCTURE
     1 15E         1 TEMP              0 ****  ****    0 ROOT
