@<TRIPOS>MOLECULE
molecule
   22    23     1     0     0
SMALL
bcc


@<TRIPOS>ATOM
      1 OAM          0.0000     0.0000     0.0000 o          1 15E      -0.681500
      2 CAH          1.2160     0.0000     0.0000 c          1 15E       0.821500
      3 NAG          1.8540     0.0000     1.1770 ns         1 15E      -0.464100
      4 CAD          3.2450     0.0010     1.2860 ca         1 15E       0.097600
      5 CAC          3.8580     0.0010     2.5330 ca         1 15E      -0.179000
      6 CAB          5.2370     0.0030     2.6210 ca         1 15E      -0.063000
      7 CAA          6.0100     0.0040     1.4720 ca         1 15E      -0.052900
      8 Br           7.8970     0.0050     1.6040 br         1 15E      -0.090100
      9 CAF          5.4030     0.0030     0.2280 ca         1 15E      -0.058000
     10 CAE          4.0300     0.0010     0.1390 ca         1 15E      -0.146300
     11 CAJ          3.3300     0.0010    -1.2010 c3         1 15E       0.155300
     12 NAI          1.8580    -0.0040    -1.1830 n          1 15E      -0.498800
     13 CAL          1.1000    -0.0100    -2.4370 c3         1 15E       0.131300
     14 H1           1.3080    -0.0010     2.0160 hn         1 15E       0.352500
     15 H2           3.2560     0.0000     3.4340 ha         1 15E       0.143000
     16 H3           5.7150     0.0030     3.5930 ha         1 15E       0.149000
     17 H4           6.0060     0.0040    -0.6720 ha         1 15E       0.149000
     18 H5           3.6520     0.8820    -1.7440 h1         1 15E       0.047700
     19 H6           3.6580    -0.8750    -1.7470 h1         1 15E       0.047700
     20 H7           0.4760     0.8740    -2.4860 h1         1 15E       0.046367
     21 H8           0.4760    -0.8950    -2.4770 h1         1 15E       0.046367
     22 H9           1.7870    -0.0140    -3.2740 h1         1 15E       0.046367
@<TRIPOS>BOND
     1     6     5 ar  
     2     6     7 ar  
     3     8     7 1   
     4     5     4 ar  
     5     7     9 ar  
     6     4     3 1   
     7     4    10 ar  
     8     9    10 ar  
     9     3     2 1   
    10    10    11 1   
    11     2     1 2   
    12     2    12 1   
    13    12    11 1   
    14    12    13 1   
    15     3    14 1   
    16     5    15 1   
    17     6    16 1   
    18     9    17 1   
    19    11    18 1   
    20    11    19 1   
    21    13    20 1   
    22    13    21 1   
    23    13    22 1   
@<TRIPOS>SUBSTRUCTURE
     1 15E         1 TEMP              0 ****  ****    0 ROOT
