@<TRIPOS>MOLECULE
15E
   22    23     1     0     0
SMALL
bcc


@<TRIPOS>ATOM
      1 OAM          0.0710    -0.1220     0.0240 o          1 15E      -0.657500
      2 CAH          1.3140     0.0320     0.0030 c          1 15E       0.809500
      3 NAG          1.9800     0.2400     1.2290 ns         1 15E      -0.468100
      4 CAD          3.3460     0.4920     1.2940 ca         1 15E       0.107600
      5 CAC          3.9770     0.8280     2.5120 ca         1 15E      -0.184000
      6 CAB          5.3470     1.0510     2.5470 ca         1 15E      -0.062000
      7 CAA          6.1160     0.9500     1.3840 ca         1 15E      -0.064900
      8 Br           7.9610     1.2540     1.4460 br         1 15E      -0.083100
      9 CAF          5.5030     0.6210     0.1730 ca         1 15E      -0.059000
     10 CAE          4.1300     0.3910     0.1190 ca         1 15E      -0.153300
     11 CAJ          3.4940     0.0180    -1.1850 c3         1 15E       0.146300
     12 NAI          2.0480     0.0540    -1.1920 n          1 15E      -0.458800
     13 CAL          1.4110    -0.3980    -2.3990 c3         1 15E       0.081300
     14 H1           1.4130     0.3490     2.0390 hn         1 15E       0.346500
     15 H2           3.3890     0.9150     3.4380 ha         1 15E       0.144000
     16 H3           5.8240     1.3110     3.5070 ha         1 15E       0.150000
     17 H4           6.0970     0.5410    -0.7520 ha         1 15E       0.149000
     18 H5           3.8480     0.7310    -1.9880 h1         1 15E       0.051200
     19 H6           3.8510    -1.0180    -1.4720 h1         1 15E       0.051200
     20 H7           0.2980    -0.2820    -2.3080 h1         1 15E       0.051367
     21 H8           1.7820     0.2290    -3.2530 h1         1 15E       0.051367
     22 H9           1.6530    -1.4750    -2.6070 h1         1 15E       0.051367
@<TRIPOS>BOND
     1     1     2 2   
     2     2     3 1   
     3     2    12 1   
     4     3     4 1   
     5     3    14 1   
     6     4     5 ar  
     7     4    10 ar  
     8     5     6 ar  
     9     5    15 1   
    10     6     7 ar  
    11     6    16 1   
    12     7     8 1   
    13     7     9 ar  
    14     9    10 ar  
    15     9    17 1   
    16    10    11 1   
    17    11    12 1   
    18    11    18 1   
    19    11    19 1   
    20    12    13 1   
    21    13    20 1   
    22    13    21 1   
    23    13    22 1   
@<TRIPOS>SUBSTRUCTURE
     1 15E         1 TEMP              0 ****  ****    0 ROOT
