@<TRIPOS>MOLECULE
molecule
   35    36     1     0     0
SMALL
bcc


@<TRIPOS>ATOM
      1 CAR          0.0000     0.0000     0.0000 ca         1 15F       0.020700
      2 CAK          1.3870     0.0000     0.0000 ca         1 15F      -0.114000
      3 CAM          2.0590     0.0000     1.2080 ca         1 15F      -0.038300
      4 CAJ         -0.6610     0.0010     1.2190 ca         1 15F      -0.114000
      5 CAL          0.0800     0.0010     2.3860 ca         1 15F      -0.038300
      6 NAT          1.3980     0.0010     2.3480 na         1 15F       0.086900
      7 CAO          2.1480     0.0010     3.6070 c3         1 15F       0.044600
      8 CAS          2.4050     1.4220     4.0380 ca         1 15F      -0.172300
      9 CAH          1.4940     2.0740     4.8490 ca         1 15F      -0.103500
     10 CAF          1.7290     3.3770     5.2440 ca         1 15F      -0.113000
     11 CAE          2.8770     4.0280     4.8310 ca         1 15F      -0.082000
     12 CAG          3.7870     3.3750     4.0210 ca         1 15F      -0.113000
     13 CAI          3.5540     2.0710     3.6290 ca         1 15F      -0.103500
     14 ClB         -2.9140    -2.7990    -4.9090 cl         1 15F      -0.072400
     15 CAU         -1.9930    -2.9000    -3.3630 c3         1 15F       0.250900
     16 ClC         -2.9740    -3.7860    -2.1370 cl         1 15F      -0.072400
     17 ClD         -0.4440    -3.7800    -3.6420 cl         1 15F      -0.072400
     18 CAQ         -1.6980    -1.5100    -2.8610 c2         1 15F       0.594600
     19 NAA         -2.1000    -0.4840    -3.5320 n2         1 15F      -0.809100
     20 OAP         -1.0140    -1.3390    -1.7110 os         1 15F      -0.449400
     21 CAN         -0.7710     0.0070    -1.2950 c3         1 15F       0.170700
     22 HAK          1.9360    -0.0010    -0.9340 ha         1 15F       0.197500
     23 HAJ         -1.7430     0.0010     1.2560 ha         1 15F       0.197500
     24 HAN1        -0.1950     0.5210    -2.0560 h1         1 15F       0.069700
     25 HAN2        -1.7150     0.5170    -1.1510 h1         1 15F       0.069700
     26 HAM          3.1420    -0.0000     1.2170 h4         1 15F       0.207000
     27 HAL         -0.4280     0.0010     3.3430 h4         1 15F       0.207000
     28 HAO1         3.0920    -0.5100     3.4640 h1         1 15F       0.103700
     29 HAO2         1.5720    -0.5100     4.3690 h1         1 15F       0.103700
     30 HAH          0.5950     1.5630     5.1730 ha         1 15F       0.130000
     31 HAI          4.2680     1.5610     2.9950 ha         1 15F       0.130000
     32 HAF          1.0160     3.8870     5.8790 ha         1 15F       0.155000
     33 HAE          3.0600     5.0500     5.1390 ha         1 15F       0.157000
     34 HAG          4.6870     3.8850     3.6990 ha         1 15F       0.155000
     35 HAA         -1.9050     0.4400    -3.2000 hn         1 15F       0.415400
@<TRIPOS>BOND
     1     1     2 ar  
     2     1     4 ar  
     3     1    21 1   
     4     2     3 ar  
     5     3     6 1   
     6     4     5 ar  
     7     5     6 2   
     8     6     7 1   
     9     7     8 1   
    10     8     9 ar  
    11     8    13 ar  
    12     9    10 ar  
    13    10    11 ar  
    14    11    12 ar  
    15    12    13 ar  
    16    14    15 1   
    17    15    16 1   
    18    15    17 1   
    19    15    18 1   
    20    18    19 2   
    21    18    20 1   
    22    20    21 1   
    23     2    22 1   
    24     4    23 1   
    25    21    24 1   
    26    21    25 1   
    27     3    26 1   
    28     5    27 1   
    29     7    28 1   
    30     7    29 1   
    31     9    30 1   
    32    13    31 1   
    33    10    32 1   
    34    11    33 1   
    35    12    34 1   
    36    19    35 1   
@<TRIPOS>SUBSTRUCTURE
     1 15F         1 TEMP              0 ****  ****    0 ROOT
