@<TRIPOS>MOLECULE
15F
   35    36     1     0     0
SMALL
bcc


@<TRIPOS>ATOM
      1 CAR         -0.1500    -0.2160     0.1570 ca         1 15F      -0.009300
      2 CAK          1.0930    -0.8480     0.3250 ca         1 15F      -0.139500
      3 CAM          1.8370    -0.6220     1.4860 ca         1 15F      -0.024300
      4 CAJ         -0.6050     0.6390     1.1710 ca         1 15F      -0.139500
      5 CAL          0.1750     0.8370     2.3150 ca         1 15F      -0.024300
      6 NAT          1.3810     0.2130     2.4710 na         1 15F       0.031900
      7 CAO          2.2050     0.4510     3.6740 c3         1 15F       0.053600
      8 CAS          1.4080     0.6300     4.9230 ca         1 15F      -0.178300
      9 CAH          0.9810    -0.4880     5.6480 ca         1 15F      -0.104000
     10 CAF          0.2920    -0.3170     6.8480 ca         1 15F      -0.120500
     11 CAE          0.0310     0.9680     7.3270 ca         1 15F      -0.082000
     12 CAG          0.4590     2.0840     6.6060 ca         1 15F      -0.120500
     13 CAI          1.1450     1.9190     5.4040 ca         1 15F      -0.104000
     14 ClB         -0.8670    -5.4560    -2.0300 cl         1 15F      -0.067067
     15 CAU         -0.3330    -3.8280    -2.4080 c3         1 15F       0.219900
     16 ClC         -0.7480    -3.4530    -4.0730 cl         1 15F      -0.067067
     17 ClD          1.4230    -3.7410    -2.1860 cl         1 15F      -0.067067
     18 CAQ         -0.9810    -2.7990    -1.4730 c2         1 15F       0.574600
     19 NAA         -1.7820    -3.1190    -0.5300 n2         1 15F      -0.758100
     20 OAP         -0.5320    -1.5190    -1.8490 os         1 15F      -0.441400
     21 CAN         -0.9570    -0.4040    -1.0880 c3         1 15F       0.144700
     22 HAK          1.4880    -1.5250    -0.4580 ha         1 15F       0.204500
     23 HAJ         -1.5720     1.1640     1.0850 ha         1 15F       0.204500
     24 HAN1        -0.7610     0.4670    -1.7860 h1         1 15F       0.106200
     25 HAN2        -2.0560    -0.4380    -0.8570 h1         1 15F       0.106200
     26 HAM          2.8220    -1.1100     1.6430 h4         1 15F       0.214500
     27 HAL         -0.1570     1.5030     3.1420 h4         1 15F       0.214500
     28 HAO1         2.8230     1.3740     3.4640 h1         1 15F       0.102200
     29 HAO2         2.9010    -0.4310     3.7910 h1         1 15F       0.102200
     30 HAH          1.1990    -1.5030     5.2830 ha         1 15F       0.140000
     31 HAI          1.4970     2.8030     4.8490 ha         1 15F       0.140000
     32 HAF         -0.0380    -1.1970     7.4210 ha         1 15F       0.158500
     33 HAE         -0.5070     1.1010     8.2800 ha         1 15F       0.160000
     34 HAG          0.2620     3.0980     6.9900 ha         1 15F       0.158500
     35 HAA         -2.1700    -2.3870     0.0240 hn         1 15F       0.408400
@<TRIPOS>BOND
     1     1     2 ar  
     2     1     4 ar  
     3     1    21 1   
     4     2     3 ar  
     5     2    22 1   
     6     3     6 1   
     7     3    26 1   
     8     4     5 ar  
     9     4    23 1   
    10     5     6 2   
    11     5    27 1   
    12     6     7 1   
    13     7     8 1   
    14     7    28 1   
    15     7    29 1   
    16     8     9 ar  
    17     8    13 ar  
    18     9    10 ar  
    19     9    30 1   
    20    10    11 ar  
    21    10    32 1   
    22    11    12 ar  
    23    11    33 1   
    24    12    13 ar  
    25    12    34 1   
    26    13    31 1   
    27    14    15 1   
    28    15    16 1   
    29    15    17 1   
    30    15    18 1   
    31    18    19 2   
    32    18    20 1   
    33    19    35 1   
    34    20    21 1   
    35    21    24 1   
    36    21    25 1   
@<TRIPOS>SUBSTRUCTURE
     1 15F         1 TEMP              0 ****  ****    0 ROOT
