@<TRIPOS>MOLECULE
molecule
   45    48     1     0     0
SMALL
bcc


@<TRIPOS>ATOM
      1 C1           0.0000     0.0000     0.0000 ca         1 15G       0.060900
      2 C2           1.3830     0.0000     0.0000 ca         1 15G      -0.107000
      3 C3           2.0760     0.0000     1.1960 ca         1 15G      -0.153000
      4 C7           3.9270    -0.0090    10.5400 c3         1 15G       0.122700
      5 C8           6.7700     0.7230     7.4790 cc         1 15G      -0.073000
      6 C9           8.0490     0.4270     6.9910 cc         1 15G      -0.236600
      7 C10          9.3880     0.8870     7.3990 c          1 15G       0.751100
      8 C11         10.2000     0.0590     5.2230 c3         1 15G       0.118000
      9 C12          9.0930    -0.9960     5.1860 c3         1 15G      -0.028100
     10 C13          7.8980    -0.4720     5.9400 cd         1 15G      -0.096600
     11 C14          5.8870     0.0040     6.7290 cd         1 15G      -0.108300
     12 C15          4.4180     0.0050     6.8890 ca         1 15G      -0.003000
     13 C16          3.5730     0.0040     5.7740 ca         1 15G      -0.200300
     14 C19          2.2080     0.0050     5.9680 ca         1 15G       0.380600
     15 C20          1.2880     0.0050     4.7740 c3         1 15G       0.098100
     16 N2          10.4090     0.6150     6.5520 ns         1 15G      -0.596900
     17 N3           6.5940    -0.7170     5.7900 na         1 15G      -0.116100
     18 C17          3.8300     0.0010     8.1650 ca         1 15G       0.035800
     19 C18          2.4500     0.0010     8.2650 ca         1 15G       0.342200
     20 N1           1.6930     0.0060     7.1830 nb         1 15G      -0.661000
     21 O2           4.6040    -0.0050     9.2810 os         1 15G      -0.304900
     22 C4           1.3840     0.0020     2.3980 ca         1 15G       0.158100
     23 C5          -0.0030     0.0030     2.3990 ca         1 15G      -0.242000
     24 C6          -0.6950     0.0020     1.2010 ca         1 15G       0.140900
     25 F1          -0.6750     0.0050    -1.1700 f          1 15G      -0.128900
     26 F2          -2.0460     0.0030     1.2010 f          1 15G      -0.123900
     27 H1           1.9240    -0.0020    -0.9390 ha         1 15G       0.157000
     28 H2           3.1590    -0.0000     1.1940 ha         1 15G       0.151000
     29 H3           3.3070     0.8760    10.6200 h1         1 15G       0.046033
     30 H4           3.3050    -0.8930    10.6120 h1         1 15G       0.046033
     31 H5           4.6550    -0.0140    11.3420 h1         1 15G       0.046033
     32 H6           6.5200     1.5250     8.1630 ha         1 15G       0.172000
     33 H7           9.8980     0.8710     4.5740 h1         1 15G       0.049200
     34 H8          11.1220    -0.4270     4.9250 h1         1 15G       0.049200
     35 H9           9.4510    -1.8830     5.6930 hc         1 15G       0.064200
     36 H10          8.8030    -1.1470     4.1530 hc         1 15G       0.064200
     37 H11          3.9790     0.1840     4.7860 ha         1 15G       0.160000
     38 H12          0.6640     0.8900     4.7980 h1         1 15G       0.060700
     39 H13          0.6620    -0.8790     4.8000 h1         1 15G       0.060700
     40 H14         11.3450     0.8030     6.8520 hn         1 15G       0.324500
     41 H15          6.1940    -1.3310     5.1090 hn         1 15G       0.297700
     42 H16          1.9840     0.0000     9.2430 h4         1 15G       0.032100
     43 H17         -0.5450     0.0050     3.3370 ha         1 15G       0.160000
     44 O3           2.0650     0.0020     3.5740 os         1 15G      -0.332900
     45 O1           9.5670     1.4820     8.4460 o          1 15G      -0.637500
@<TRIPOS>BOND
     1    25     1 1   
     2     2     1 ar  
     3     2     3 ar  
     4     1    24 ar  
     5     3    22 ar  
     6    24    26 1   
     7    24    23 ar  
     8    22    23 ar  
     9    22    44 1   
    10    15    44 1   
    11    15    14 1   
    12    20    14 ar  
    13    20    19 ar  
    14    14    13 ar  
    15    19    18 ar  
    16    13    12 ar  
    17    18    12 ar  
    18    18    21 1   
    19    12    11 1   
    20     4    21 1   
    21    11    17 1   
    22    11     5 2   
    23    17    10 1   
    24     5     6 1   
    25    10     6 2   
    26    10     9 1   
    27     6     7 1   
    28     9     8 1   
    29     7    45 2   
    30     7    16 1   
    31     8    16 1   
    32     2    27 1   
    33     3    28 1   
    34     4    29 1   
    35     4    30 1   
    36     4    31 1   
    37     5    32 1   
    38     8    33 1   
    39     8    34 1   
    40     9    35 1   
    41     9    36 1   
    42    13    37 1   
    43    15    38 1   
    44    15    39 1   
    45    16    40 1   
    46    17    41 1   
    47    19    42 1   
    48    23    43 1   
@<TRIPOS>SUBSTRUCTURE
     1 15G         1 TEMP              0 ****  ****    0 ROOT
