@<TRIPOS>MOLECULE
15G
   45    48     1     0     0
SMALL
bcc


@<TRIPOS>ATOM
      1 C1           0.0000     0.0000     0.0000 ca         1 15G       0.038900
      2 C2           1.3830     0.0000     0.0000 ca         1 15G      -0.068000
      3 C3           2.0760     0.0000     1.1960 ca         1 15G      -0.134000
      4 C7           3.9270    -0.0090    10.5400 c3         1 15G       0.237700
      5 C8           6.7700     0.7230     7.4790 cc         1 15G      -0.031000
      6 C9           8.0490     0.4270     6.9910 cc         1 15G      -0.242600
      7 C10          9.3880     0.8870     7.3990 c          1 15G       0.686100
      8 C11         10.2000     0.0590     5.2230 c3         1 15G       0.058000
      9 C12          9.0930    -0.9960     5.1860 c3         1 15G       0.069900
     10 C13          7.8980    -0.4720     5.9400 cd         1 15G      -0.332600
     11 C14          5.8870     0.0040     6.7290 cd         1 15G      -0.320300
     12 C15          4.4180     0.0050     6.8890 ca         1 15G       0.010000
     13 C16          3.5730     0.0040     5.7740 ca         1 15G      -0.184300
     14 C19          2.2080     0.0050     5.9680 ca         1 15G       0.318600
     15 C20          1.2880     0.0050     4.7740 c3         1 15G       0.167100
     16 N2          10.4090     0.6150     6.5520 ns         1 15G      -0.213900
     17 N3           6.5940    -0.7170     5.7900 na         1 15G       0.486900
     18 C17          3.8300     0.0010     8.1650 ca         1 15G       0.048800
     19 C18          2.4500     0.0010     8.2650 ca         1 15G       0.304200
     20 N1           1.6930     0.0060     7.1830 nb         1 15G      -0.538000
     21 O2           4.6040    -0.0050     9.2810 os         1 15G      -0.280900
     22 C4           1.3840     0.0020     2.3980 ca         1 15G       0.170100
     23 C5          -0.0030     0.0030     2.3990 ca         1 15G      -0.224000
     24 C6          -0.6950     0.0020     1.2010 ca         1 15G       0.128900
     25 F1          -0.6750     0.0050    -1.1700 f          1 15G      -0.116900
     26 F2          -2.0460     0.0030     1.2010 f          1 15G      -0.114900
     27 H1           1.9240    -0.0020    -0.9390 ha         1 15G       0.123000
     28 H2           3.1590    -0.0000     1.1940 ha         1 15G       0.121000
     29 H3           3.3070     0.8760    10.6200 h1         1 15G       0.001367
     30 H4           3.3050    -0.8930    10.6120 h1         1 15G       0.001367
     31 H5           4.6550    -0.0140    11.3420 h1         1 15G       0.001367
     32 H6           6.5200     1.5250     8.1630 ha         1 15G       0.142000
     33 H7           9.8980     0.8710     4.5740 h1         1 15G       0.016700
     34 H8          11.1220    -0.4270     4.9250 h1         1 15G       0.016700
     35 H9           9.4510    -1.8830     5.6930 hc         1 15G       0.024200
     36 H10          8.8030    -1.1470     4.1530 hc         1 15G       0.024200
     37 H11          3.9790     0.1840     4.7860 ha         1 15G       0.130000
     38 H12          0.6640     0.8900     4.7980 h1         1 15G       0.019200
     39 H13          0.6620    -0.8790     4.8000 h1         1 15G       0.019200
     40 H14         11.3450     0.8030     6.8520 hn         1 15G       0.179500
     41 H15          6.1940    -1.3310     5.1090 hn         1 15G       0.104700
     42 H16          1.9840     0.0000     9.2430 h4         1 15G      -0.000900
     43 H17         -0.5450     0.0050     3.3370 ha         1 15G       0.144000
     44 O3           2.0650     0.0020     3.5740 os         1 15G      -0.309900
     45 O1           9.5670     1.4820     8.4460 o          1 15G      -0.679500
@<TRIPOS>BOND
     1     1     2 ar  
     2     1    24 ar  
     3     1    25 1   
     4     2     3 ar  
     5     2    27 1   
     6     3    22 ar  
     7     3    28 1   
     8     4    21 1   
     9     4    29 1   
    10     4    30 1   
    11     4    31 1   
    12     5     6 1   
    13     5    11 2   
    14     5    32 1   
    15     6     7 1   
    16     6    10 2   
    17     7    16 1   
    18     7    45 2   
    19     8     9 1   
    20     8    16 1   
    21     8    33 1   
    22     8    34 1   
    23     9    10 1   
    24     9    35 1   
    25     9    36 1   
    26    10    17 1   
    27    11    12 1   
    28    11    17 1   
    29    12    13 ar  
    30    12    18 ar  
    31    13    14 ar  
    32    13    37 1   
    33    14    15 1   
    34    14    20 ar  
    35    15    38 1   
    36    15    39 1   
    37    15    44 1   
    38    16    40 1   
    39    17    41 1   
    40    18    19 ar  
    41    18    21 1   
    42    19    20 ar  
    43    19    42 1   
    44    22    23 ar  
    45    22    44 1   
    46    23    24 ar  
    47    23    43 1   
    48    24    26 1   
@<TRIPOS>SUBSTRUCTURE
     1 15G         1 TEMP              0 ****  ****    0 ROOT
