@<TRIPOS>MOLECULE
15G
   45    48     1     0     0
SMALL
bcc


@<TRIPOS>ATOM
      1 C1           0.0920    -0.4290     0.0350 ca         1 15G       0.059900
      2 C2           1.3020     0.2680     0.1720 ca         1 15G      -0.107000
      3 C3           1.8470     0.4960     1.4320 ca         1 15G      -0.192000
      4 C7           5.4860     0.3780     9.8680 c3         1 15G       0.107700
      5 C8           1.6410     1.8040    10.0650 cc         1 15G      -0.063000
      6 C9           0.3290     1.8940    10.6150 cc         1 15G      -0.223600
      7 C10         -0.1340     2.3690    11.9160 c          1 15G       0.742100
      8 C11         -2.3530     1.4130    11.3540 c3         1 15G       0.109000
      9 C12         -2.0430     1.3920     9.8470 c3         1 15G      -0.027100
     10 C13         -0.5810     1.4230     9.6360 cd         1 15G      -0.061600
     11 C14          1.5040     1.2840     8.7600 cd         1 15G      -0.102300
     12 C15          2.5320     1.0080     7.7800 ca         1 15G       0.009000
     13 C16          2.2480     1.0040     6.4070 ca         1 15G      -0.199300
     14 C19          3.2650     0.7200     5.4760 ca         1 15G       0.361600
     15 C20          2.9450     0.7460     4.0030 c3         1 15G       0.084100
     16 N2          -1.5050     2.2560    12.1500 ns         1 15G      -0.579900
     17 N3           0.1330     1.0600     8.5140 na         1 15G      -0.151100
     18 C17          3.8710     0.7410     8.1590 ca         1 15G       0.027800
     19 C18          4.8270     0.4710     7.1520 ca         1 15G       0.333200
     20 N1           4.5420     0.4500     5.8430 nb         1 15G      -0.633000
     21 O2           4.1650     0.7720     9.5020 os         1 15G      -0.308900
     22 C4           1.1830     0.0230     2.5700 ca         1 15G       0.141100
     23 C5          -0.0280    -0.6810     2.4640 ca         1 15G      -0.178000
     24 C6          -0.5780    -0.9060     1.1960 ca         1 15G       0.127900
     25 F1          -0.4390    -0.6490    -1.1900 f          1 15G      -0.125900
     26 F2          -1.7440    -1.5790     1.0740 f          1 15G      -0.122900
     27 H1           1.8150     0.6330    -0.7300 ha         1 15G       0.157000
     28 H2           2.7940     1.0480     1.5140 ha         1 15G       0.150000
     29 H3           5.7020    -0.6600     9.5180 h1         1 15G       0.051033
     30 H4           6.2360     1.0980     9.4610 h1         1 15G       0.051033
     31 H5           5.4620     0.4230    10.9870 h1         1 15G       0.051033
     32 H6           2.5720     2.0790    10.5560 ha         1 15G       0.184000
     33 H7          -3.4160     1.7670    11.4850 h1         1 15G       0.038700
     34 H8          -2.2990     0.3480    11.7320 h1         1 15G       0.038700
     35 H9          -2.5050     2.2880     9.3500 hc         1 15G       0.063700
     36 H10         -2.5090     0.4740     9.4030 hc         1 15G       0.063700
     37 H11          1.2370     1.2230     6.0320 ha         1 15G       0.151000
     38 H12          3.6620     0.1250     3.4050 h1         1 15G       0.064200
     39 H13          2.9510     1.8080     3.6370 h1         1 15G       0.064200
     40 H14         -1.8340     2.4890    13.0580 hn         1 15G       0.317500
     41 H15         -0.2390     0.6780     7.6840 hn         1 15G       0.300700
     42 H16          5.8800     0.2540     7.4070 h4         1 15G       0.031100
     43 H17         -0.5360    -1.0510     3.3660 ha         1 15G       0.167000
     44 O3           1.6160     0.2140     3.8670 os         1 15G      -0.332900
     45 O1           0.5950     2.8910    12.7820 o          1 15G      -0.639500
@<TRIPOS>BOND
     1     1     2 ar  
     2     1    24 ar  
     3     1    25 1   
     4     2     3 ar  
     5     2    27 1   
     6     3    22 ar  
     7     3    28 1   
     8     4    21 1   
     9     4    29 1   
    10     4    30 1   
    11     4    31 1   
    12     5     6 1   
    13     5    11 2   
    14     5    32 1   
    15     6     7 1   
    16     6    10 2   
    17     7    16 1   
    18     7    45 2   
    19     8     9 1   
    20     8    16 1   
    21     8    33 1   
    22     8    34 1   
    23     9    10 1   
    24     9    35 1   
    25     9    36 1   
    26    10    17 1   
    27    11    12 1   
    28    11    17 1   
    29    12    13 ar  
    30    12    18 ar  
    31    13    14 ar  
    32    13    37 1   
    33    14    15 1   
    34    14    20 ar  
    35    15    38 1   
    36    15    39 1   
    37    15    44 1   
    38    16    40 1   
    39    17    41 1   
    40    18    19 ar  
    41    18    21 1   
    42    19    20 ar  
    43    19    42 1   
    44    22    23 ar  
    45    22    44 1   
    46    23    24 ar  
    47    23    43 1   
    48    24    26 1   
@<TRIPOS>SUBSTRUCTURE
     1 15G         1 TEMP              0 ****  ****    0 ROOT
