@<TRIPOS>MOLECULE
15H
   57    61     1     0     0
SMALL
bcc


@<TRIPOS>ATOM
      1 N4          -0.2010    -0.6620    -0.2880 nc         1 15H      -0.577100
      2 C13          1.1900    -0.7920    -0.1760 ca         1 15H       0.112400
      3 C17          1.8570    -1.7360     0.6290 ca         1 15H      -0.086000
      4 C16          3.2430    -1.7600     0.6280 ca         1 15H      -0.124000
      5 C15          3.9850    -0.8640    -0.1560 ca         1 15H      -0.130000
      6 C14          3.3490     0.0750    -0.9560 ca         1 15H      -0.084000
      7 C12          1.9550     0.1230    -0.9740 ca         1 15H      -0.092100
      8 S1           0.9220     1.1480    -1.8330 ss         1 15H      -0.081100
      9 C11         -0.4920     0.3330    -1.1280 cd         1 15H       0.579100
     10 N3          -1.7500     0.8420    -1.4510 nu         1 15H      -0.651600
     11 C8          -2.9370     0.2690    -0.9300 ca         1 15H       0.120600
     12 C9          -4.0240     0.0110    -1.7960 ca         1 15H      -0.132500
     13 C10         -5.2340    -0.4510    -1.2930 ca         1 15H      -0.109000
     14 C7          -3.0910     0.0410     0.4540 ca         1 15H      -0.132500
     15 C6          -4.2960    -0.4380     0.9560 ca         1 15H      -0.109000
     16 C5          -5.3580    -0.6850     0.0810 ca         1 15H       0.090100
     17 O1          -6.5390    -1.2940     0.5170 os         1 15H      -0.354400
     18 C3          -7.3090    -0.6160     1.4500 ca         1 15H       0.502300
     19 N2          -7.0580     0.6790     1.7420 nb         1 15H      -0.672000
     20 C2          -7.8850     1.2700     2.6270 ca         1 15H       0.284900
     21 C1          -8.9650     0.5740     3.2090 ca         1 15H       0.274900
     22 N1          -9.2330    -0.7140     2.9240 nb         1 15H      -0.667000
     23 C4          -8.4120    -1.3630     2.0490 ca         1 15H       0.507900
     24 N5          -8.5570    -2.7520     1.7830 nh         1 15H      -0.713300
     25 C22         -8.8960    -3.0650     0.3970 c3         1 15H       0.183300
     26 C21         -8.8190    -4.5630     0.1060 c3         1 15H      -0.076900
     27 C18         -9.3480    -3.5060     2.7510 c3         1 15H       0.183300
     28 C19         -9.2830    -5.0140     2.5040 c3         1 15H      -0.076900
     29 C20         -9.6890    -5.3420     1.0770 c3         1 15H      -0.064700
     30 C23         -9.6470    -6.8530     0.8280 c3         1 15H       0.146100
     31 C24         -8.2520    -7.4120     0.6230 c3         1 15H      -0.132100
     32 O2         -10.4600    -7.0820    -0.3210 oh         1 15H      -0.604800
     33 H1           1.2770    -2.4400     1.2450 ha         1 15H       0.152000
     34 H2           3.7740    -2.4940     1.2540 ha         1 15H       0.136000
     35 H3           5.0840    -0.9080    -0.1350 ha         1 15H       0.136000
     36 H4           3.9340     0.7760    -1.5680 ha         1 15H       0.139000
     37 H5          -1.8220     1.1060    -2.4150 hn         1 15H       0.423800
     38 H6          -3.9300     0.1820    -2.8790 ha         1 15H       0.146000
     39 H7          -6.0820    -0.6490    -1.9640 ha         1 15H       0.150000
     40 H8          -2.2600     0.2360     1.1500 ha         1 15H       0.146000
     41 H9          -4.4180    -0.6150     2.0350 ha         1 15H       0.150000
     42 H10         -7.6690     2.3240     2.8680 h4         1 15H       0.036100
     43 H11         -9.6470     1.0600     3.9270 h4         1 15H       0.034100
     44 H12         -9.9370    -2.7010     0.1490 h1         1 15H       0.048200
     45 H13         -8.1700    -2.5290    -0.2770 h1         1 15H       0.048200
     46 H14         -9.1710    -4.7440    -0.9420 hc         1 15H       0.053950
     47 H15         -7.7540    -4.9050     0.1810 hc         1 15H       0.053950
     48 H16         -8.9380    -3.2920     3.7770 h1         1 15H       0.048200
     49 H17        -10.4320    -3.1900     2.7350 h1         1 15H       0.048200
     50 H18         -8.2460    -5.3900     2.7030 hc         1 15H       0.053950
     51 H19         -9.9760    -5.5140     3.2290 hc         1 15H       0.053950
     52 H20        -10.7590    -5.0180     0.9250 hc         1 15H       0.066700
     53 H21        -10.1270    -7.3710     1.7100 h1         1 15H       0.029700
     54 H22         -8.2820    -8.5280     0.6330 hc         1 15H       0.045033
     55 H23         -7.5720    -7.0650     1.4360 hc         1 15H       0.045033
     56 H24         -7.8390    -7.0800    -0.3600 hc         1 15H       0.045033
     57 H25        -10.3640    -8.0140    -0.5490 ho         1 15H       0.399000
@<TRIPOS>BOND
     1     1     2 1   
     2     1     9 2   
     3     2     3 ar  
     4     2     7 ar  
     5     3     4 ar  
     6     3    33 1   
     7     4     5 ar  
     8     4    34 1   
     9     5     6 ar  
    10     5    35 1   
    11     6     7 ar  
    12     6    36 1   
    13     7     8 1   
    14     8     9 1   
    15     9    10 1   
    16    10    11 1   
    17    10    37 1   
    18    11    12 ar  
    19    11    14 ar  
    20    12    13 ar  
    21    12    38 1   
    22    13    16 ar  
    23    13    39 1   
    24    14    15 ar  
    25    14    40 1   
    26    15    16 ar  
    27    15    41 1   
    28    16    17 1   
    29    17    18 1   
    30    18    19 ar  
    31    18    23 ar  
    32    19    20 ar  
    33    20    21 ar  
    34    20    42 1   
    35    21    22 ar  
    36    21    43 1   
    37    22    23 ar  
    38    23    24 1   
    39    24    25 1   
    40    24    27 1   
    41    25    26 1   
    42    25    44 1   
    43    25    45 1   
    44    26    29 1   
    45    26    46 1   
    46    26    47 1   
    47    27    28 1   
    48    27    48 1   
    49    27    49 1   
    50    28    29 1   
    51    28    50 1   
    52    28    51 1   
    53    29    30 1   
    54    29    52 1   
    55    30    31 1   
    56    30    32 1   
    57    30    53 1   
    58    31    54 1   
    59    31    55 1   
    60    31    56 1   
    61    32    57 1   
@<TRIPOS>SUBSTRUCTURE
     1 15H         1 TEMP              0 ****  ****    0 ROOT
