@<TRIPOS>MOLECULE
15H
   57    61     1     0     0
SMALL
bcc


@<TRIPOS>ATOM
      1 N4           0.0000     0.0000     0.0000 nc         1 15H      -0.547100
      2 C13          1.3480     0.0000     0.0000 ca         1 15H       0.121400
      3 C17          2.2300     0.0000     1.1020 ca         1 15H      -0.067000
      4 C16          3.5880     0.0000     0.9040 ca         1 15H      -0.088000
      5 C15          4.1150     0.0010    -0.3790 ca         1 15H      -0.112000
      6 C14          3.2730     0.0010    -1.4690 ca         1 15H      -0.035000
      7 C12          1.8920     0.0010    -1.2880 ca         1 15H      -0.046100
      8 S1           0.5690     0.0010    -2.4510 ss         1 15H      -0.221100
      9 C11         -0.6020     0.0010    -1.1400 cd         1 15H       0.478100
     10 N3          -1.9730     0.0000    -1.3080 nu         1 15H      -0.223600
     11 C8          -2.5220     0.1250    -2.5900 ca         1 15H      -0.015400
     12 C9          -3.6910    -0.5500    -2.9130 ca         1 15H      -0.128500
     13 C10         -4.2320    -0.4260    -4.1790 ca         1 15H      -0.072500
     14 C7          -1.8990     0.9300    -3.5360 ca         1 15H      -0.128500
     15 C6          -2.4410     1.0520    -4.8000 ca         1 15H      -0.072500
     16 C5          -3.6060     0.3720    -5.1250 ca         1 15H       0.090100
     17 O1          -4.1390     0.4940    -6.3700 os         1 15H      -0.326400
     18 C3          -3.5540    -0.1950    -7.3830 ca         1 15H       0.478300
     19 N2          -2.4440    -0.8810    -7.1650 nb         1 15H      -0.596000
     20 C2          -1.8760    -1.5530    -8.1550 ca         1 15H       0.287900
     21 C1          -2.4370    -1.5410    -9.4150 ca         1 15H       0.274900
     22 N1          -3.5470    -0.8580    -9.6440 nb         1 15H      -0.573000
     23 C4          -4.1270    -0.1860    -8.6610 ca         1 15H       0.364900
     24 N5          -5.2940     0.5320    -8.8970 nh         1 15H      -0.446300
     25 C22         -5.7110     0.4120   -10.3010 c3         1 15H       0.133300
     26 C21         -7.0690     1.0910   -10.4920 c3         1 15H      -0.025900
     27 C18         -5.1340     1.9390    -8.5100 c3         1 15H       0.133300
     28 C19         -6.4750     2.6630    -8.6470 c3         1 15H      -0.025900
     29 C20         -6.9560     2.5660   -10.0980 c3         1 15H      -0.059700
     30 C23         -8.3260     3.2360   -10.2280 c3         1 15H       0.194100
     31 C24         -8.8050     3.1370   -11.6780 c3         1 15H      -0.038100
     32 O2          -8.2210     4.6110    -9.8530 oh         1 15H      -0.590800
     33 H1           1.8330    -0.0010     2.1090 ha         1 15H       0.113000
     34 H2           4.2550    -0.0000     1.7580 ha         1 15H       0.104000
     35 H3           5.1890     0.0010    -0.5240 ha         1 15H       0.107000
     36 H4           3.6860     0.0020    -2.4700 ha         1 15H       0.108000
     37 H5          -2.5740    -0.0890    -0.5120 hn         1 15H       0.294800
     38 H6          -4.1790    -1.1730    -2.1740 ha         1 15H       0.128000
     39 H7          -5.1430    -0.9550    -4.4320 ha         1 15H       0.115500
     40 H8          -0.9900     1.4600    -3.2830 ha         1 15H       0.128000
     41 H9          -1.9550     1.6770    -5.5390 ha         1 15H       0.115500
     42 H10         -0.9670    -2.1140    -7.9740 h4         1 15H      -0.008900
     43 H11         -1.9660    -2.0910   -10.2200 h4         1 15H      -0.008900
     44 H12         -4.9770     0.8920   -10.9370 h1         1 15H       0.027950
     45 H13         -5.7920    -0.6360   -10.5640 h1         1 15H       0.027950
     46 H14         -7.8060     0.6050    -9.8630 hc         1 15H       0.027450
     47 H15         -7.3670     1.0170   -11.5310 hc         1 15H       0.027450
     48 H16         -4.8000     1.9930    -7.4810 h1         1 15H       0.027950
     49 H17         -4.4040     2.4090    -9.1580 h1         1 15H       0.027950
     50 H18         -6.3510     3.7050    -8.3770 hc         1 15H       0.027450
     51 H19         -7.2040     2.1990    -7.9940 hc         1 15H       0.027450
     52 H20         -6.2430     3.0590   -10.7470 hc         1 15H       0.039700
     53 H21         -9.0350     2.7380    -9.5780 h1         1 15H       0.002700
     54 H22         -9.2240     2.1540   -11.8530 hc         1 15H       0.010367
     55 H23         -9.5630     3.8900   -11.8600 hc         1 15H       0.010367
     56 H24         -7.9680     3.2980   -12.3470 hc         1 15H       0.010367
     57 H25         -9.0840     4.9700    -9.7300 ho         1 15H       0.390000
@<TRIPOS>BOND
     1     1     2 1   
     2     1     9 2   
     3     2     3 ar  
     4     2     7 ar  
     5     3     4 ar  
     6     3    33 1   
     7     4     5 ar  
     8     4    34 1   
     9     5     6 ar  
    10     5    35 1   
    11     6     7 ar  
    12     6    36 1   
    13     7     8 1   
    14     8     9 1   
    15     9    10 1   
    16    10    11 1   
    17    10    37 1   
    18    11    12 ar  
    19    11    14 ar  
    20    12    13 ar  
    21    12    38 1   
    22    13    16 ar  
    23    13    39 1   
    24    14    15 ar  
    25    14    40 1   
    26    15    16 ar  
    27    15    41 1   
    28    16    17 1   
    29    17    18 1   
    30    18    19 ar  
    31    18    23 ar  
    32    19    20 ar  
    33    20    21 ar  
    34    20    42 1   
    35    21    22 ar  
    36    21    43 1   
    37    22    23 ar  
    38    23    24 1   
    39    24    25 1   
    40    24    27 1   
    41    25    26 1   
    42    25    44 1   
    43    25    45 1   
    44    26    29 1   
    45    26    46 1   
    46    26    47 1   
    47    27    28 1   
    48    27    48 1   
    49    27    49 1   
    50    28    29 1   
    51    28    50 1   
    52    28    51 1   
    53    29    30 1   
    54    29    52 1   
    55    30    31 1   
    56    30    32 1   
    57    30    53 1   
    58    31    54 1   
    59    31    55 1   
    60    31    56 1   
    61    32    57 1   
@<TRIPOS>SUBSTRUCTURE
     1 15H         1 TEMP              0 ****  ****    0 ROOT
