@<TRIPOS>MOLECULE
molecule
   57    61     1     0     0
SMALL
bcc


@<TRIPOS>ATOM
      1 N4           0.0000     0.0000     0.0000 nc         1 15H      -0.660100
      2 C13          1.3480     0.0000     0.0000 ca         1 15H       0.163400
      3 C17          2.2300     0.0000     1.1020 ca         1 15H      -0.091000
      4 C16          3.5880     0.0000     0.9040 ca         1 15H      -0.119000
      5 C15          4.1150     0.0010    -0.3790 ca         1 15H      -0.135000
      6 C14          3.2730     0.0010    -1.4690 ca         1 15H      -0.077000
      7 C12          1.8920     0.0010    -1.2880 ca         1 15H      -0.077100
      8 S1           0.5690     0.0010    -2.4510 ss         1 15H      -0.135100
      9 C11         -0.6020     0.0010    -1.1400 cd         1 15H       0.657100
     10 N3          -1.9730     0.0000    -1.3080 nu         1 15H      -0.709600
     11 C8          -2.5220     0.1250    -2.5900 ca         1 15H       0.156600
     12 C9          -3.6910    -0.5500    -2.9130 ca         1 15H      -0.160500
     13 C10         -4.2320    -0.4260    -4.1790 ca         1 15H      -0.092000
     14 C7          -1.8990     0.9300    -3.5360 ca         1 15H      -0.160500
     15 C6          -2.4410     1.0520    -4.8000 ca         1 15H      -0.092000
     16 C5          -3.6060     0.3720    -5.1250 ca         1 15H       0.082100
     17 O1          -4.1390     0.4940    -6.3700 os         1 15H      -0.346400
     18 C3          -3.5540    -0.1950    -7.3830 ca         1 15H       0.513300
     19 N2          -2.4440    -0.8810    -7.1650 nb         1 15H      -0.702000
     20 C2          -1.8760    -1.5530    -8.1550 ca         1 15H       0.298900
     21 C1          -2.4370    -1.5410    -9.4150 ca         1 15H       0.286900
     22 N1          -3.5470    -0.8580    -9.6440 nb         1 15H      -0.682000
     23 C4          -4.1270    -0.1860    -8.6610 ca         1 15H       0.497900
     24 N5          -5.2940     0.5320    -8.8970 nh         1 15H      -0.684300
     25 C22         -5.7110     0.4120   -10.3010 c3         1 15H       0.167300
     26 C21         -7.0690     1.0910   -10.4920 c3         1 15H      -0.076900
     27 C18         -5.1340     1.9390    -8.5100 c3         1 15H       0.167300
     28 C19         -6.4750     2.6630    -8.6470 c3         1 15H      -0.076900
     29 C20         -6.9560     2.5660   -10.0980 c3         1 15H      -0.067700
     30 C23         -8.3260     3.2360   -10.2280 c3         1 15H       0.148100
     31 C24         -8.8050     3.1370   -11.6780 c3         1 15H      -0.124100
     32 O2          -8.2210     4.6110    -9.8530 oh         1 15H      -0.608800
     33 H1           1.8330    -0.0010     2.1090 ha         1 15H       0.144000
     34 H2           4.2550    -0.0000     1.7580 ha         1 15H       0.134000
     35 H3           5.1890     0.0010    -0.5240 ha         1 15H       0.134000
     36 H4           3.6860     0.0020    -2.4700 ha         1 15H       0.134000
     37 H5          -2.5740    -0.0890    -0.5120 hn         1 15H       0.470800
     38 H6          -4.1790    -1.1730    -2.1740 ha         1 15H       0.149000
     39 H7          -5.1430    -0.9550    -4.4320 ha         1 15H       0.147500
     40 H8          -0.9900     1.4600    -3.2830 ha         1 15H       0.149000
     41 H9          -1.9550     1.6770    -5.5390 ha         1 15H       0.147500
     42 H10         -0.9670    -2.1140    -7.9740 h4         1 15H       0.033100
     43 H11         -1.9660    -2.0910   -10.2200 h4         1 15H       0.033100
     44 H12         -4.9770     0.8920   -10.9370 h1         1 15H       0.054200
     45 H13         -5.7920    -0.6360   -10.5640 h1         1 15H       0.054200
     46 H14         -7.8060     0.6050    -9.8630 hc         1 15H       0.056700
     47 H15         -7.3670     1.0170   -11.5310 hc         1 15H       0.056700
     48 H16         -4.8000     1.9930    -7.4810 h1         1 15H       0.054200
     49 H17         -4.4040     2.4090    -9.1580 h1         1 15H       0.054200
     50 H18         -6.3510     3.7050    -8.3770 hc         1 15H       0.056700
     51 H19         -7.2040     2.1990    -7.9940 hc         1 15H       0.056700
     52 H20         -6.2430     3.0590   -10.7470 hc         1 15H       0.062700
     53 H21         -9.0350     2.7380    -9.5780 h1         1 15H       0.032700
     54 H22         -9.2240     2.1540   -11.8530 hc         1 15H       0.040700
     55 H23         -9.5630     3.8900   -11.8600 hc         1 15H       0.040700
     56 H24         -7.9680     3.2980   -12.3470 hc         1 15H       0.040700
     57 H25         -9.0840     4.9700    -9.7300 ho         1 15H       0.402000
@<TRIPOS>BOND
     1    27    28 1
     2    27    24 1
     3    28    29 1
     4    21    22 ar
     5    21    20 ar
     6    22    23 ar
     7    29    30 1
     8    29    26 1
     9    30    32 1
    10    30    31 1
    11    24    23 1
    12    24    25 1
    13    23    18 ar
    14    20    19 ar
    15    19    18 ar
    16    18    17 1
    17    25    26 1
    18    17    16 1
    19    16    15 ar
    20    16    13 ar
    21    15    14 ar
    22    13    12 ar
    23    14    11 ar
    24    12    11 ar
    25    11    10 1
    26     1     9 2
    27     1     2 1
    28    10     9 1
    29     3     2 ar
    30     3     4 ar
    31     9     8 1
    32     2     7 ar
    33     4     5 ar
    34     7     8 1
    35     7     6 ar
    36     5     6 ar
    37     3    33 1
    38     4    34 1
    39     5    35 1
    40     6    36 1
    41    10    37 1
    42    12    38 1
    43    13    39 1
    44    14    40 1
    45    15    41 1
    46    20    42 1
    47    21    43 1
    48    25    44 1
    49    25    45 1
    50    26    46 1
    51    26    47 1
    52    27    48 1
    53    27    49 1
    54    28    50 1
    55    28    51 1
    56    29    52 1
    57    30    53 1
    58    31    54 1
    59    31    55 1
    60    31    56 1
    61    32    57 1
@<TRIPOS>SUBSTRUCTURE
     1 15H         1 TEMP              0 ****  ****    0 ROOT
