@<TRIPOS>MOLECULE
15I
   40    43     1     0     0
SMALL
bcc


@<TRIPOS>ATOM
      1 C12          0.0000     0.0000     0.0000 cc         1 15I       0.226700
      2 N3           1.3010     0.0000     0.0000 nd         1 15I      -0.481100
      3 N4          -0.4660     0.0000     1.2810 na         1 15I       0.176000
      4 C13          0.6230    -0.0000     2.1140 ca         1 15I       0.229800
      5 N5           0.7960     0.0010     3.4330 nb         1 15I      -0.652000
      6 C            2.0070     0.0010     3.9500 ca         1 15I       0.669900
      7 C11          1.7520     0.0000     1.2780 ca         1 15I      -0.202200
      8 C1           3.0220    -0.0000     1.8770 ca         1 15I       0.591200
      9 N            3.0960     0.0010     3.2040 nb         1 15I      -0.708000
     10 N1           4.1710    -0.0010     1.1040 nh         1 15I      -0.432300
     11 C10          5.3730    -0.0010     1.9480 c3         1 15I       0.126300
     12 C9           6.6150    -0.1490     1.0660 c3         1 15I      -0.022900
     13 C4           6.6670     1.0090     0.0670 c3         1 15I      -0.067000
     14 C3           5.3830     1.0170    -0.7650 c3         1 15I      -0.022900
     15 C2           4.1760     1.1320     0.1700 c3         1 15I       0.126300
     16 C8           6.7950     2.3320     0.8240 c3         1 15I       0.134800
     17 N2           8.0380     2.3300     1.6070 n7         1 15I      -0.575200
     18 C7           9.2140     2.2120     0.7360 c3         1 15I       0.145800
     19 C6           9.1570     0.8850    -0.0230 c3         1 15I      -0.031400
     20 C5           7.8740     0.8340    -0.8570 c3         1 15I      -0.018400
     21 H12         -0.6210    -0.0000    -0.8870 h5         1 15I       0.031800
     22 H4          -1.4270     0.0000     1.5620 hn         1 15I       0.133700
     23 H            2.1130     0.0020     5.0280 h5         1 15I      -0.001900
     24 H101         5.4290     0.9320     2.4940 h1         1 15I       0.033700
     25 H102         5.3240    -0.8310     2.6430 h1         1 15I       0.033700
     26 H21C         3.2650     1.1200    -0.4160 h1         1 15I       0.033700
     27 H22C         4.2400     2.0580     0.7280 h1         1 15I       0.033700
     28 H91C         6.5650    -1.0880     0.5270 hc         1 15I       0.029950
     29 H92C         7.5020    -0.1300     1.6870 hc         1 15I       0.029950
     30 H31C         5.3960     1.8630    -1.4410 hc         1 15I       0.029950
     31 H32C         5.3140     0.0960    -1.3300 hc         1 15I       0.029950
     32 H81C         5.9500     2.4480     1.4910 h1         1 15I       0.014700
     33 H82C         6.8180     3.1510     0.1160 h1         1 15I       0.014700
     34 H51C         7.8870     1.6320    -1.5890 hc         1 15I       0.016700
     35 H52C         7.8080    -0.1240    -1.3590 hc         1 15I       0.016700
     36 H2           8.0990     3.1770     2.1380 hn         1 15I       0.249800
     37 H71C        10.1130     2.2420     1.3400 h1         1 15I       0.004200
     38 H72C         9.2210     3.0310     0.0280 h1         1 15I       0.004200
     39 H61C         9.1600     0.0640     0.6840 hc         1 15I       0.022200
     40 H62C        10.0160     0.8070    -0.6790 hc         1 15I       0.022200
@<TRIPOS>BOND
     1     1     2 2   
     2     1     3 1   
     3     1    21 1   
     4     2     7 1   
     5     3     4 1   
     6     3    22 1   
     7     4     5 ar  
     8     4     7 ar  
     9     5     6 ar  
    10     6     9 ar  
    11     6    23 1   
    12     7     8 ar  
    13     8     9 ar  
    14     8    10 1   
    15    10    11 1   
    16    10    15 1   
    17    11    12 1   
    18    11    24 1   
    19    11    25 1   
    20    12    13 1   
    21    12    28 1   
    22    12    29 1   
    23    13    14 1   
    24    13    16 1   
    25    13    20 1   
    26    14    15 1   
    27    14    30 1   
    28    14    31 1   
    29    15    26 1   
    30    15    27 1   
    31    16    17 1   
    32    16    32 1   
    33    16    33 1   
    34    17    18 1   
    35    17    36 1   
    36    18    19 1   
    37    18    37 1   
    38    18    38 1   
    39    19    20 1   
    40    19    39 1   
    41    19    40 1   
    42    20    34 1   
    43    20    35 1   
@<TRIPOS>SUBSTRUCTURE
     1 15I         1 TEMP              0 ****  ****    0 ROOT
