@<TRIPOS>MOLECULE
molecule
   40    43     1     0     0
SMALL
bcc


@<TRIPOS>ATOM
      1 C12          0.0000     0.0000     0.0000 cc         1 15I       0.416700
      2 N3           1.3010     0.0000     0.0000 nd         1 15I      -0.576100
      3 N4          -0.4660     0.0000     1.2810 na         1 15I      -0.361000
      4 C13          0.6230    -0.0000     2.1140 ca         1 15I       0.454800
      5 N5           0.7960     0.0010     3.4330 nb         1 15I      -0.776000
      6 C            2.0070     0.0010     3.9500 ca         1 15I       0.724900
      7 C11          1.7520     0.0000     1.2780 ca         1 15I      -0.172200
      8 C1           3.0220    -0.0000     1.8770 ca         1 15I       0.715200
      9 N            3.0960     0.0010     3.2040 nb         1 15I      -0.808000
     10 N1           4.1710    -0.0010     1.1040 nh         1 15I      -0.682300
     11 C10          5.3730    -0.0010     1.9480 c3         1 15I       0.167800
     12 C9           6.6150    -0.1490     1.0660 c3         1 15I      -0.069900
     13 C4           6.6670     1.0090     0.0670 c3         1 15I      -0.064000
     14 C3           5.3830     1.0170    -0.7650 c3         1 15I      -0.069900
     15 C2           4.1760     1.1320     0.1700 c3         1 15I       0.167800
     16 C8           6.7950     2.3320     0.8240 c3         1 15I       0.160800
     17 N2           8.0380     2.3300     1.6070 n7         1 15I      -0.817200
     18 C7           9.2140     2.2120     0.7360 c3         1 15I       0.157800
     19 C6           9.1570     0.8850    -0.0230 c3         1 15I      -0.080400
     20 C5           7.8740     0.8340    -0.8570 c3         1 15I      -0.071400
     21 H12         -0.6210    -0.0000    -0.8870 h5         1 15I       0.079800
     22 H4          -1.4270     0.0000     1.5620 hn         1 15I       0.314700
     23 H            2.1130     0.0020     5.0280 h5         1 15I       0.062100
     24 H101         5.4290     0.9320     2.4940 h1         1 15I       0.057450
     25 H102         5.3240    -0.8310     2.6430 h1         1 15I       0.057450
     26 H21C         3.2650     1.1200    -0.4160 h1         1 15I       0.057450
     27 H22C         4.2400     2.0580     0.7280 h1         1 15I       0.057450
     28 H91C         6.5650    -1.0880     0.5270 hc         1 15I       0.057700
     29 H92C         7.5020    -0.1300     1.6870 hc         1 15I       0.057700
     30 H31C         5.3960     1.8630    -1.4410 hc         1 15I       0.057700
     31 H32C         5.3140     0.0960    -1.3300 hc         1 15I       0.057700
     32 H81C         5.9500     2.4480     1.4910 h1         1 15I       0.033700
     33 H82C         6.8180     3.1510     0.1160 h1         1 15I       0.033700
     34 H51C         7.8870     1.6320    -1.5890 hc         1 15I       0.043200
     35 H52C         7.8080    -0.1240    -1.3590 hc         1 15I       0.043200
     36 H2           8.0990     3.1770     2.1380 hn         1 15I       0.352800
     37 H71C        10.1130     2.2420     1.3400 h1         1 15I       0.030200
     38 H72C         9.2210     3.0310     0.0280 h1         1 15I       0.030200
     39 H61C         9.1600     0.0640     0.6840 hc         1 15I       0.049200
     40 H62C        10.0160     0.8070    -0.6790 hc         1 15I       0.049200
@<TRIPOS>BOND
     1     1     2 2
     2     1     3 1
     3     2     7 1
     4     3     4 1
     5     4     5 ar
     6     4     7 ar
     7     5     6 ar
     8     6     9 ar
     9     7     8 ar
    10     8     9 ar
    11     8    10 1
    12    10    11 1
    13    10    15 1
    14    11    12 1
    15    12    13 1
    16    13    14 1
    17    13    16 1
    18    13    20 1
    19    14    15 1
    20    16    17 1
    21    17    18 1
    22    18    19 1
    23    19    20 1
    24     1    21 1
    25     3    22 1
    26     6    23 1
    27    11    24 1
    28    11    25 1
    29    15    26 1
    30    15    27 1
    31    12    28 1
    32    12    29 1
    33    14    30 1
    34    14    31 1
    35    16    32 1
    36    16    33 1
    37    20    34 1
    38    20    35 1
    39    17    36 1
    40    18    37 1
    41    18    38 1
    42    19    39 1
    43    19    40 1
@<TRIPOS>SUBSTRUCTURE
     1 15I         1 TEMP              0 ****  ****    0 ROOT
