@<TRIPOS>MOLECULE
15I
   40    43     1     0     0
SMALL
bcc


@<TRIPOS>ATOM
      1 C12         -0.0910     0.9510     0.2290 cc         1 15I       0.403700
      2 N3           1.2500     0.9220     0.2020 nd         1 15I      -0.531100
      3 N4          -0.6480     0.3420     1.3730 na         1 15I      -0.381000
      4 C13          0.4340    -0.1120     2.1360 ca         1 15I       0.432800
      5 N5           0.4610    -0.7530     3.3410 nb         1 15I      -0.714000
      6 C            1.7200    -1.0000     3.7650 ca         1 15I       0.669900
      7 C11          1.6320     0.2610     1.3790 ca         1 15I      -0.179200
      8 C1           2.9020    -0.0640     1.9660 ca         1 15I       0.719200
      9 N            2.9100    -0.7130     3.1690 nb         1 15I      -0.774000
     10 N1           4.0920     0.3810     1.3450 nh         1 15I      -0.713300
     11 C10          4.3240    -0.0770    -0.0200 c3         1 15I       0.183300
     12 C9           5.1100    -1.3830    -0.1370 c3         1 15I      -0.100900
     13 C4           6.4090    -1.3770     0.6650 c3         1 15I      -0.044000
     14 C3           6.1150    -0.9230     2.0970 c3         1 15I      -0.100900
     15 C2           5.3160     0.3770     2.1330 c3         1 15I       0.183300
     16 C8           6.9740    -2.8140     0.7430 c3         1 15I       0.167800
     17 N2           7.4740    -3.3120    -0.5220 n7         1 15I      -0.819200
     18 C7           8.4680    -2.4520    -1.1350 c3         1 15I       0.162800
     19 C6           7.9940    -1.0080    -1.2770 c3         1 15I      -0.076400
     20 C5           7.4620    -0.4670     0.0320 c3         1 15I      -0.071400
     21 H12         -0.7280     1.3990    -0.5440 h5         1 15I       0.073800
     22 H4          -1.6010     0.2490     1.6010 hn         1 15I       0.318700
     23 H            1.8020    -1.5240     4.7420 h5         1 15I       0.053100
     24 H101         3.3490    -0.2030    -0.5630 h1         1 15I       0.065200
     25 H102         4.8950     0.7520    -0.5280 h1         1 15I       0.065200
     26 H21C         5.0890     0.6430     3.2020 h1         1 15I       0.065200
     27 H22C         5.9500     1.2070     1.7030 h1         1 15I       0.065200
     28 H91C         4.4700    -2.2330     0.2190 hc         1 15I       0.056700
     29 H92C         5.3330    -1.5620    -1.2210 hc         1 15I       0.056700
     30 H31C         5.5450    -1.7290     2.6280 hc         1 15I       0.056700
     31 H32C         7.0760    -0.7640     2.6510 hc         1 15I       0.056700
     32 H81C         6.1540    -3.5110     1.0770 h1         1 15I       0.029200
     33 H82C         7.7730    -2.8180     1.5440 h1         1 15I       0.029200
     34 H51C         8.3140    -0.3510     0.7530 hc         1 15I       0.041700
     35 H52C         7.0250     0.5520    -0.1380 hc         1 15I       0.041700
     36 H2           7.8520    -4.2330    -0.3970 hn         1 15I       0.361800
     37 H71C         8.6880    -2.8710    -2.1580 h1         1 15I       0.026200
     38 H72C         9.4390    -2.4470    -0.5540 h1         1 15I       0.026200
     39 H61C         8.8580    -0.3820    -1.6200 hc         1 15I       0.046200
     40 H62C         7.2010    -0.9480    -2.0680 hc         1 15I       0.046200
@<TRIPOS>BOND
     1     1     2 2   
     2     1     3 1   
     3     1    21 1   
     4     2     7 1   
     5     3     4 1   
     6     3    22 1   
     7     4     5 ar  
     8     4     7 ar  
     9     5     6 ar  
    10     6     9 ar  
    11     6    23 1   
    12     7     8 ar  
    13     8     9 ar  
    14     8    10 1   
    15    10    11 1   
    16    10    15 1   
    17    11    12 1   
    18    11    24 1   
    19    11    25 1   
    20    12    13 1   
    21    12    28 1   
    22    12    29 1   
    23    13    14 1   
    24    13    16 1   
    25    13    20 1   
    26    14    15 1   
    27    14    30 1   
    28    14    31 1   
    29    15    26 1   
    30    15    27 1   
    31    16    17 1   
    32    16    32 1   
    33    16    33 1   
    34    17    18 1   
    35    17    36 1   
    36    18    19 1   
    37    18    37 1   
    38    18    38 1   
    39    19    20 1   
    40    19    39 1   
    41    19    40 1   
    42    20    34 1   
    43    20    35 1   
@<TRIPOS>SUBSTRUCTURE
     1 15I         1 TEMP              0 ****  ****    0 ROOT
