@<TRIPOS>MOLECULE
15J
   56    60     1     0     0
SMALL
bcc


@<TRIPOS>ATOM
      1 O2          -0.0250    -0.5280    -0.0350 oh         1 15J      -0.602800
      2 C24          1.3920    -0.4630    -0.1020 c3         1 15J       0.134400
      3 C21          1.9190    -0.4980     1.3280 c3         1 15J      -0.069700
      4 C22          1.7170    -1.8690     1.9490 c3         1 15J      -0.077400
      5 C23          2.3170    -1.9270     3.3520 c3         1 15J       0.187300
      6 C20          3.3930    -0.1350     1.3480 c3         1 15J      -0.077400
      7 C19          3.9600    -0.2260     2.7650 c3         1 15J       0.187300
      8 N2           3.7210    -1.5290     3.3740 nh         1 15J      -0.722300
      9 C4           4.3830    -1.7840     4.6070 ca         1 15J       0.625200
     10 N1           4.9460    -0.7550     5.3190 nb         1 15J      -0.705000
     11 C3           5.6420    -1.0350     6.4270 ca         1 15J       0.416200
     12 C2           5.8360    -2.3310     6.9370 ca         1 15J      -0.262300
     13 C1           5.2750    -3.3940     6.2390 ca         1 15J      -0.102000
     14 C5           4.5500    -3.1350     5.0700 ca         1 15J      -0.046200
     15 O1           4.1020    -4.1840     4.2740 os         1 15J      -0.225200
     16 C6           3.2920    -5.1270     4.9020 ca         1 15J       0.090100
     17 C11          3.2530    -6.3860     4.2860 ca         1 15J      -0.147000
     18 C10          2.4170    -7.3710     4.7980 ca         1 15J      -0.127500
     19 C7           2.5070    -4.8560     6.0280 ca         1 15J      -0.147000
     20 C8           1.6700    -5.8430     6.5350 ca         1 15J      -0.127500
     21 C9           1.6050    -7.1140     5.9220 ca         1 15J       0.075600
     22 N3           0.6870    -8.0600     6.4530 nu         1 15J      -0.647600
     23 C12          0.4110    -9.2170     5.6780 cc         1 15J       0.576700
     24 N5          -0.2490    -9.1110     4.4180 na         1 15J      -0.278300
     25 C14         -0.4840   -10.4190     3.9900 ca         1 15J      -0.073200
     26 C18         -1.0910   -10.9400     2.8410 ca         1 15J      -0.133000
     27 C17         -1.1510   -12.3200     2.7220 ca         1 15J      -0.116000
     28 C16         -0.6230   -13.1720     3.7090 ca         1 15J      -0.150000
     29 C15         -0.0150   -12.6790     4.8530 ca         1 15J      -0.075000
     30 C13          0.0670   -11.2880     5.0160 ca         1 15J       0.076400
     31 N4           0.6260   -10.5140     6.0470 nd         1 15J      -0.593100
     32 H1          -0.3430    -0.5120    -0.9440 ho         1 15J       0.399000
     33 H2           1.7040     0.4910    -0.6060 h1         1 15J       0.023200
     34 H3           1.7880    -1.3330    -0.6920 h1         1 15J       0.023200
     35 H4           1.3430     0.2590     1.9320 hc         1 15J       0.065700
     36 H5           2.1890    -2.6530     1.3000 hc         1 15J       0.053700
     37 H6           0.6210    -2.0920     2.0180 hc         1 15J       0.053700
     38 H7           1.7040    -1.2640     4.0320 h1         1 15J       0.046700
     39 H8           2.2420    -2.9840     3.7350 h1         1 15J       0.046700
     40 H9           3.9600    -0.8190     0.6640 hc         1 15J       0.053700
     41 H10          3.5390     0.9150     0.9840 hc         1 15J       0.053700
     42 H11          5.0740    -0.0620     2.7160 h1         1 15J       0.046700
     43 H12          3.5120     0.6060     3.3830 h1         1 15J       0.046700
     44 H13          6.0670    -0.1550     6.9460 h4         1 15J       0.024100
     45 H14          6.4180    -2.4930     7.8530 ha         1 15J       0.148000
     46 H15          5.3930    -4.4330     6.5830 ha         1 15J       0.152000
     47 H16          3.8820    -6.5820     3.4050 ha         1 15J       0.153500
     48 H17          2.4100    -8.3630     4.3190 ha         1 15J       0.148500
     49 H18          2.5530    -3.8680     6.5090 ha         1 15J       0.153500
     50 H19          1.0520    -5.6200     7.4200 ha         1 15J       0.148500
     51 H20          0.8890    -8.2930     7.4090 hn         1 15J       0.429800
     52 H21         -0.5500    -8.2810     3.9830 hn         1 15J       0.314700
     53 H22         -1.5050   -10.2810     2.0670 ha         1 15J       0.136000
     54 H23         -1.6250   -12.7640     1.8330 ha         1 15J       0.132000
     55 H24         -0.6980   -14.2610     3.5640 ha         1 15J       0.133000
     56 H25          0.3960   -13.3520     5.6190 ha         1 15J       0.148000
@<TRIPOS>BOND
     1     1     2 1   
     2     1    32 1   
     3     2     3 1   
     4     2    33 1   
     5     2    34 1   
     6     3     4 1   
     7     3     6 1   
     8     3    35 1   
     9     4     5 1   
    10     4    36 1   
    11     4    37 1   
    12     5     8 1   
    13     5    38 1   
    14     5    39 1   
    15     6     7 1   
    16     6    40 1   
    17     6    41 1   
    18     7     8 1   
    19     7    42 1   
    20     7    43 1   
    21     8     9 1   
    22     9    10 ar  
    23     9    14 ar  
    24    10    11 ar  
    25    11    12 ar  
    26    11    44 1   
    27    12    13 ar  
    28    12    45 1   
    29    13    14 ar  
    30    13    46 1   
    31    14    15 1   
    32    15    16 1   
    33    16    17 ar  
    34    16    19 ar  
    35    17    18 ar  
    36    17    47 1   
    37    18    21 ar  
    38    18    48 1   
    39    19    20 ar  
    40    19    49 1   
    41    20    21 ar  
    42    20    50 1   
    43    21    22 1   
    44    22    23 1   
    45    22    51 1   
    46    23    24 1   
    47    23    31 2   
    48    24    25 1   
    49    24    52 1   
    50    25    26 ar  
    51    25    30 ar  
    52    26    27 ar  
    53    26    53 1   
    54    27    28 ar  
    55    27    54 1   
    56    28    29 ar  
    57    28    55 1   
    58    29    30 ar  
    59    29    56 1   
    60    30    31 1   
@<TRIPOS>SUBSTRUCTURE
     1 15J         1 TEMP              0 ****  ****    0 ROOT
