@<TRIPOS>MOLECULE
molecule
   56    60     1     0     0
SMALL
bcc


@<TRIPOS>ATOM
      1 O2           0.0000     0.0000     0.0000 oh         1 15J      -0.611800
      2 C24          1.4290     0.0000     0.0000 c3         1 15J       0.143400
      3 C21          1.9390     0.0000     1.4430 c3         1 15J      -0.074700
      4 C22          3.4650    -0.1250     1.4460 c3         1 15J      -0.075900
      5 C23          3.9740    -0.0640     2.8880 c3         1 15J       0.168800
      6 C20          1.5410     1.3120     2.1260 c3         1 15J      -0.075900
      7 C19          2.1060     1.3310     3.5480 c3         1 15J       0.168800
      8 N2           3.5680     1.2090     3.4970 nh         1 15J      -0.688300
      9 C4           4.1260     1.3550     4.7650 ca         1 15J       0.601200
     10 N1           3.3390     1.5670     5.8070 nb         1 15J      -0.711000
     11 C3           3.8260     1.7110     7.0260 ca         1 15J       0.409200
     12 C2           5.1840     1.6450     7.2600 ca         1 15J      -0.250300
     13 C1           6.0490     1.4240     6.1950 ca         1 15J      -0.155000
     14 C5           5.5100     1.2710     4.9270 ca         1 15J      -0.003200
     15 O1           6.3170     1.0480     3.8550 os         1 15J      -0.238200
     16 C6           7.6630     1.0600     4.0560 ca         1 15J       0.068100
     17 C11          8.2890    -0.0430     4.6180 ca         1 15J      -0.118000
     18 C10          9.6550    -0.0310     4.8230 ca         1 15J      -0.145000
     19 C7           8.4070     2.1730     3.6950 ca         1 15J      -0.118000
     20 C8           9.7730     2.1860     3.8980 ca         1 15J      -0.145000
     21 C9          10.4010     1.0850     4.4660 ca         1 15J       0.166600
     22 N3          11.7850     1.0980     4.6740 nu         1 15J      -0.729600
     23 C12         12.4320     2.2890     4.9380 cc         1 15J       0.660700
     24 N5          13.7660     2.4140     5.2030 na         1 15J      -0.292300
     25 C14         14.0190     3.7600     5.4100 ca         1 15J      -0.096200
     26 C18         15.1580     4.4900     5.7110 ca         1 15J      -0.122000
     27 C17         15.0780     5.8590     5.8590 ca         1 15J      -0.124000
     28 C16         13.8640     6.5120     5.7090 ca         1 15J      -0.136000
     29 C15         12.7210     5.8030     5.4100 ca         1 15J      -0.085000
     30 C13         12.7860     4.4160     5.2570 ca         1 15J       0.121400
     31 N4          11.8600     3.4660     4.9660 nd         1 15J      -0.659100
     32 H1          -0.3140    -0.2120    -0.8630 ho         1 15J       0.400000
     33 H2           1.7910     0.8850    -0.5110 h1         1 15J       0.021200
     34 H3           1.7910    -0.8850    -0.5110 h1         1 15J       0.021200
     35 H4           1.5080    -0.8340     1.9840 hc         1 15J       0.060700
     36 H5           3.7500    -1.0720     1.0030 hc         1 15J       0.054200
     37 H6           3.8950     0.6900     0.8770 hc         1 15J       0.054200
     38 H7           5.0550    -0.1360     2.8910 h1         1 15J       0.052950
     39 H8           3.5510    -0.8850     3.4540 h1         1 15J       0.052950
     40 H9           0.4610     1.3840     2.1660 hc         1 15J       0.054200
     41 H10          1.9440     2.1470     1.5660 hc         1 15J       0.054200
     42 H11          1.8400     2.2660     4.0280 h1         1 15J       0.052950
     43 H12          1.6940     0.5020     4.1100 h1         1 15J       0.052950
     44 H13          3.1500     1.8840     7.8540 h4         1 15J       0.023100
     45 H14          5.5730     1.7670     8.2640 ha         1 15J       0.138000
     46 H15          7.1190     1.3660     6.3530 ha         1 15J       0.154000
     47 H16          7.7070    -0.9130     4.8960 ha         1 15J       0.148500
     48 H17         10.1450    -0.8910     5.2640 ha         1 15J       0.158000
     49 H18          7.9170     3.0310     3.2510 ha         1 15J       0.148500
     50 H19         10.3540     3.0570     3.6170 ha         1 15J       0.158000
     51 H20         12.3100     0.2480     4.6070 hn         1 15J       0.453800
     52 H21         14.4050     1.6630     5.3710 hn         1 15J       0.298700
     53 H22         16.1100     3.9860     5.8290 ha         1 15J       0.125000
     54 H23         15.9700     6.4280     6.0940 ha         1 15J       0.133000
     55 H24         13.8130     7.5870     5.8270 ha         1 15J       0.134000
     56 H25         11.7760     6.3200     5.2940 ha         1 15J       0.143000
@<TRIPOS>BOND
     1     2     1 1   
     2     2     3 1   
     3     6     3 1   
     4     6     7 1   
     5     3     4 1   
     6     7     8 1   
     7     4     5 1   
     8     8     5 1   
     9     8     9 1   
    10    10     9 ar  
    11    10    11 ar  
    12     9    14 ar  
    13    11    12 ar  
    14    14    15 1   
    15    14    13 ar  
    16    15    16 1   
    17    12    13 ar  
    18    16    17 ar  
    19    16    19 ar  
    20    17    18 ar  
    21    19    20 ar  
    22    18    21 ar  
    23    20    21 ar  
    24    21    22 1   
    25    24    23 1   
    26    24    25 1   
    27    22    23 1   
    28    23    31 2   
    29    26    25 ar  
    30    26    27 ar  
    31    25    30 ar  
    32    27    28 ar  
    33    31    30 1   
    34    30    29 ar  
    35    28    29 ar  
    36     1    32 1   
    37     2    33 1   
    38     2    34 1   
    39     3    35 1   
    40     4    36 1   
    41     4    37 1   
    42     5    38 1   
    43     5    39 1   
    44     6    40 1   
    45     6    41 1   
    46     7    42 1   
    47     7    43 1   
    48    11    44 1   
    49    12    45 1   
    50    13    46 1   
    51    17    47 1   
    52    18    48 1   
    53    19    49 1   
    54    20    50 1   
    55    22    51 1   
    56    24    52 1   
    57    26    53 1   
    58    27    54 1   
    59    28    55 1   
    60    29    56 1   
@<TRIPOS>SUBSTRUCTURE
     1 15J         1 TEMP              0 ****  ****    0 ROOT
