@<TRIPOS>MOLECULE
15J
   56    60     1     0     0
SMALL
bcc


@<TRIPOS>ATOM
      1 O2           0.0000     0.0000     0.0000 oh         1 15J      -0.593800
      2 C24          1.4290     0.0000     0.0000 c3         1 15J       0.227400
      3 C21          1.9390     0.0000     1.4430 c3         1 15J      -0.065700
      4 C22          3.4650    -0.1250     1.4460 c3         1 15J      -0.022400
      5 C23          3.9740    -0.0640     2.8880 c3         1 15J       0.134800
      6 C20          1.5410     1.3120     2.1260 c3         1 15J      -0.022400
      7 C19          2.1060     1.3310     3.5480 c3         1 15J       0.134800
      8 N2           3.5680     1.2090     3.4970 nh         1 15J      -0.455300
      9 C4           4.1260     1.3550     4.7650 ca         1 15J       0.464200
     10 N1           3.3390     1.5670     5.8070 nb         1 15J      -0.597000
     11 C3           3.8260     1.7110     7.0260 ca         1 15J       0.390200
     12 C2           5.1840     1.6450     7.2600 ca         1 15J      -0.213300
     13 C1           6.0490     1.4240     6.1950 ca         1 15J      -0.147000
     14 C5           5.5100     1.2710     4.9270 ca         1 15J       0.006800
     15 O1           6.3170     1.0480     3.8550 os         1 15J      -0.204200
     16 C6           7.6630     1.0600     4.0560 ca         1 15J       0.069100
     17 C11          8.2890    -0.0430     4.6180 ca         1 15J      -0.094000
     18 C10          9.6550    -0.0310     4.8230 ca         1 15J      -0.121000
     19 C7           8.4070     2.1730     3.6950 ca         1 15J      -0.094000
     20 C8           9.7730     2.1860     3.8980 ca         1 15J      -0.121000
     21 C9          10.4010     1.0850     4.4660 ca         1 15J       0.006600
     22 N3          11.7850     1.0980     4.6740 nu         1 15J      -0.257600
     23 C12         12.4320     2.2890     4.9380 cc         1 15J       0.309700
     24 N5          13.7660     2.4140     5.2030 na         1 15J       0.224700
     25 C14         14.0190     3.7600     5.4100 ca         1 15J      -0.274200
     26 C18         15.1580     4.4900     5.7110 ca         1 15J      -0.081000
     27 C17         15.0780     5.8590     5.8590 ca         1 15J      -0.101000
     28 C16         13.8640     6.5120     5.7090 ca         1 15J      -0.108000
     29 C15         12.7210     5.8030     5.4100 ca         1 15J      -0.055000
     30 C13         12.7860     4.4160     5.2570 ca         1 15J       0.098400
     31 N4          11.8600     3.4660     4.9660 nd         1 15J      -0.585100
     32 H1          -0.3140    -0.2120    -0.8630 ho         1 15J       0.387000
     33 H2           1.7910     0.8850    -0.5110 h1         1 15J      -0.013800
     34 H3           1.7910    -0.8850    -0.5110 h1         1 15J      -0.013800
     35 H4           1.5080    -0.8340     1.9840 hc         1 15J       0.036700
     36 H5           3.7500    -1.0720     1.0030 hc         1 15J       0.023950
     37 H6           3.8950     0.6900     0.8770 hc         1 15J       0.023950
     38 H7           5.0550    -0.1360     2.8910 h1         1 15J       0.026700
     39 H8           3.5510    -0.8850     3.4540 h1         1 15J       0.026700
     40 H9           0.4610     1.3840     2.1660 hc         1 15J       0.023950
     41 H10          1.9440     2.1470     1.5660 hc         1 15J       0.023950
     42 H11          1.8400     2.2660     4.0280 h1         1 15J       0.026700
     43 H12          1.6940     0.5020     4.1100 h1         1 15J       0.026700
     44 H13          3.1500     1.8840     7.8540 h4         1 15J      -0.019900
     45 H14          5.5730     1.7670     8.2640 ha         1 15J       0.112000
     46 H15          7.1190     1.3660     6.3530 ha         1 15J       0.133000
     47 H16          7.7070    -0.9130     4.8960 ha         1 15J       0.117500
     48 H17         10.1450    -0.8910     5.2640 ha         1 15J       0.132500
     49 H18          7.9170     3.0310     3.2510 ha         1 15J       0.117500
     50 H19         10.3540     3.0570     3.6170 ha         1 15J       0.132500
     51 H20         12.3100     0.2480     4.6070 hn         1 15J       0.278800
     52 H21         14.4050     1.6630     5.3710 hn         1 15J       0.126700
     53 H22         16.1100     3.9860     5.8290 ha         1 15J       0.098000
     54 H23         15.9700     6.4280     6.0940 ha         1 15J       0.103000
     55 H24         13.8130     7.5870     5.8270 ha         1 15J       0.104000
     56 H25         11.7760     6.3200     5.2940 ha         1 15J       0.111000
@<TRIPOS>BOND
     1     1     2 1   
     2     1    32 1   
     3     2     3 1   
     4     2    33 1   
     5     2    34 1   
     6     3     4 1   
     7     3     6 1   
     8     3    35 1   
     9     4     5 1   
    10     4    36 1   
    11     4    37 1   
    12     5     8 1   
    13     5    38 1   
    14     5    39 1   
    15     6     7 1   
    16     6    40 1   
    17     6    41 1   
    18     7     8 1   
    19     7    42 1   
    20     7    43 1   
    21     8     9 1   
    22     9    10 ar  
    23     9    14 ar  
    24    10    11 ar  
    25    11    12 ar  
    26    11    44 1   
    27    12    13 ar  
    28    12    45 1   
    29    13    14 ar  
    30    13    46 1   
    31    14    15 1   
    32    15    16 1   
    33    16    17 ar  
    34    16    19 ar  
    35    17    18 ar  
    36    17    47 1   
    37    18    21 ar  
    38    18    48 1   
    39    19    20 ar  
    40    19    49 1   
    41    20    21 ar  
    42    20    50 1   
    43    21    22 1   
    44    22    23 1   
    45    22    51 1   
    46    23    24 1   
    47    23    31 2   
    48    24    25 1   
    49    24    52 1   
    50    25    26 ar  
    51    25    30 ar  
    52    26    27 ar  
    53    26    53 1   
    54    27    28 ar  
    55    27    54 1   
    56    28    29 ar  
    57    28    55 1   
    58    29    30 ar  
    59    29    56 1   
    60    30    31 1   
@<TRIPOS>SUBSTRUCTURE
     1 15J         1 TEMP              0 ****  ****    0 ROOT
