@<TRIPOS>MOLECULE
15M
   67    70     1     0     0
SMALL
bcc


@<TRIPOS>ATOM
      1 C1           0.0000     0.0000     0.0000 c2         1 15M       0.214000
      2 C2           1.5080     0.0000     0.0000 c3         1 15M      -0.127000
      3 C3           2.0180     0.0000     1.4420 c3         1 15M      -0.089000
      4 C4           3.5470    -0.0000     1.4430 c3         1 15M      -0.089000
      5 C5           4.0500    -0.0010     2.8640 c2         1 15M      -0.164000
      6 C6           4.9200    -0.9000     3.2500 c2         1 15M      -0.142000
      7 C7           5.5490    -1.8240     2.2390 c3         1 15M      -0.078000
      8 C8           7.0720    -1.7480     2.3560 c3         1 15M      -0.119000
      9 C9           7.5280    -2.3340     3.7030 c3         1 15M       0.088000
     10 C10          8.4460    -3.5290     3.3760 c3         1 15M      -0.182000
     11 C11          8.9690    -3.2280     1.9490 c3         1 15M       0.059000
     12 C12          7.7300    -2.6060     1.2550 DU         1 15M       0.000000
     13 C13          8.1530    -1.7470     0.0920 c2         1 15M      -0.092000
     14 C14          7.7140    -2.0130    -1.1130 c2         1 15M      -0.131000
     15 C15          8.1370    -1.1540    -2.2760 DU         1 15M       0.202000
     16 C16          8.7550    -2.0360    -3.3630 c3         1 15M      -0.148000
     17 C17          9.0700    -1.1820    -4.5930 c3         1 15M      -0.061000
     18 C18          9.6800    -2.0500    -5.6650 ca         1 15M      -0.079000
     19 C19         11.0500    -2.2170    -5.7220 ca         1 15M      -0.098500
     20 C20         11.6090    -3.0170    -6.7010 ca         1 15M      -0.099000
     21 C21         10.7970    -3.6430    -7.6280 ca         1 15M      -0.106000
     22 C22          9.4270    -3.4720    -7.5740 ca         1 15M      -0.099000
     23 C23          8.8680    -2.6760    -6.5920 ca         1 15M      -0.098500
     24 C24         -2.6480     0.0010    -2.6100 c3         1 15M      -0.125000
     25 C25         -2.1380     0.0010    -1.1670 c3         1 15M      -0.065000
     26 N           -0.6730     0.0010    -1.1670 ns         1 15M      -0.016000
     27 O1          -0.6060     0.0000     1.0500 o          1 15M      -0.406000
     28 O9           6.3950    -2.7770     4.4530 oh         1 15M      -0.306000
     29 O11          9.3710    -4.4310     1.2920 oh         1 15M      -0.299000
     30 O15          9.1000    -0.1950    -1.8350 oh         1 15M      -0.300000
     31 H21A         1.8690    -0.8850    -0.5110 hc         1 15M       0.063500
     32 H22A         1.8690     0.8850    -0.5110 hc         1 15M       0.063500
     33 H31          1.6560    -0.8840     1.9530 hc         1 15M       0.071500
     34 H32          1.6560     0.8840     1.9530 hc         1 15M       0.071500
     35 H41          3.9090     0.8850     0.9330 hc         1 15M       0.060000
     36 H42          3.9090    -0.8840     0.9320 hc         1 15M       0.060000
     37 H5           3.6000     0.6620     3.5930 ha         1 15M       0.106000
     38 H6           5.2790    -0.8980     4.2730 ha         1 15M       0.118000
     39 H71          5.2230    -2.8400     2.4260 hc         1 15M       0.076000
     40 H72          5.2480    -1.5270     1.2420 hc         1 15M       0.076000
     41 H8           7.4050    -0.7200     2.2700 hc         1 15M       0.083000
     42 H9           8.0800    -1.5880     4.2620 h1         1 15M       0.042000
     43 H101         7.8810    -4.4530     3.3840 hc         1 15M       0.071500
     44 H102         9.2700    -3.5750     4.0780 hc         1 15M       0.071500
     45 H11          9.7820    -2.5130     1.9850 h1         1 15M       0.056000
     46 H12          7.0510    -3.3850     0.9300 ha         1 15M       0.116000
     47 H13          7.1910    -1.6770     0.5860 DU         1 15M       0.047000
     48 H14          7.2980    -1.0380    -1.3370 DU         1 15M      -0.013000
     49 H15          7.2720    -0.6380    -2.6770 ha         1 15M       0.018000
     50 H161         9.6680    -2.4830    -2.9890 hc         1 15M       0.075500
     51 H162         8.0550    -2.8170    -3.6350 hc         1 15M       0.075500
     52 H171         8.1570    -0.7350    -4.9670 hc         1 15M       0.057000
     53 H172         9.7690    -0.4010    -4.3200 hc         1 15M       0.057000
     54 H19         11.6860    -1.7260    -4.9950 ha         1 15M       0.105500
     55 H20         12.6840    -3.1500    -6.7450 ha         1 15M       0.101000
     56 H21         11.2350    -4.2680    -8.3970 ha         1 15M       0.101000
     57 H22          8.7910    -3.9630    -8.3010 ha         1 15M       0.101000
     58 H23          7.7940    -2.5420    -6.5490 ha         1 15M       0.105500
     59 H241        -2.2900     0.8880    -3.1190 hc         1 15M       0.046667
     60 H242        -3.7310    -0.0040    -2.6100 hc         1 15M       0.046667
     61 H243        -2.2830    -0.8810    -3.1220 hc         1 15M       0.046667
     62 H251        -2.4990    -0.8830    -0.6560 h1         1 15M       0.064000
     63 H252        -2.4990     0.8860    -0.6570 h1         1 15M       0.064000
     64 HN          -0.1720     0.0230    -2.0330 hn         1 15M       0.086000
     65 HO9          6.6540    -2.9470     5.3430 ho         1 15M       0.187000
     66 H1          10.3070    -4.5230     1.3500 ho         1 15M       0.188000
     67 H2           8.7180     0.6670    -1.8560 ho         1 15M       0.188000
@<TRIPOS>BOND
     1     1     2 1   
     2     1    26 1   
     3     1    27 1   
     4     2     3 1   
     5     2    31 1   
     6     2    32 1   
     7     3     4 1   
     8     3    33 1   
     9     3    34 1   
    10     4     5 1   
    11     4    35 1   
    12     4    36 1   
    13     5     6 1   
    14     5    37 1   
    15     6     7 1   
    16     6    38 1   
    17     7     8 1   
    18     7    39 1   
    19     7    40 1   
    20     8     9 1   
    21     8    12 1   
    22     8    41 1   
    23     9    10 1   
    24     9    28 1   
    25     9    42 1   
    26    10    11 1   
    27    10    43 1   
    28    10    44 1   
    29    11    12 1   
    30    11    29 1   
    31    11    45 1   
    32    12    13 1   
    33    12    46 1   
    34    12    47 1   
    35    13    14 1   
    36    13    47 1   
    37    14    15 1   
    38    14    48 1   
    39    15    16 1   
    40    15    30 1   
    41    15    48 1   
    42    15    49 1   
    43    16    17 1   
    44    16    50 1   
    45    16    51 1   
    46    17    18 1   
    47    17    52 1   
    48    17    53 1   
    49    18    19 1   
    50    18    23 1   
    51    19    20 1   
    52    19    54 1   
    53    20    21 1   
    54    20    55 1   
    55    21    22 1   
    56    21    56 1   
    57    22    23 1   
    58    22    57 1   
    59    23    58 1   
    60    24    25 1   
    61    24    59 1   
    62    24    60 1   
    63    24    61 1   
    64    25    26 1   
    65    25    62 1   
    66    25    63 1   
    67    26    64 1   
    68    28    65 1   
    69    29    66 1   
    70    30    67 1   
@<TRIPOS>SUBSTRUCTURE
     1 15M         1 TEMP              0 ****  ****    0 ROOT
