@<TRIPOS>MOLECULE
molecule
   68    69     1     0     0
SMALL
bcc


@<TRIPOS>ATOM
      1 C1           0.0000     0.0000     0.0000 c          1 15M       0.550100
      2 C2           1.5500     0.0000     0.0000 c3         1 15M      -0.160400
      3 C3           2.0620     0.0000     1.4540 c3         1 15M      -0.101400
      4 C4           3.5770     0.3270     1.5300 c3         1 15M      -0.103200
      5 C5           4.4550    -0.7470     0.9430 c2         1 15M      -0.059200
      6 C6           4.7500    -1.9350     1.5560 c2         1 15M      -0.242200
      7 C7           4.2120    -2.3270     2.9130 c3         1 15M      -0.112200
      8 C8           5.2730    -2.5740     4.0410 c3         1 15M      -0.063700
      9 C9           6.1190    -3.8710     3.9200 c3         1 15M       0.144100
     10 C10          7.5940    -3.4690     4.1060 c3         1 15M      -0.151400
     11 C11          7.6000    -2.0350     4.6450 c3         1 15M       0.146100
     12 C12          6.2760    -1.4110     4.1930 c3         1 15M      -0.031500
     13 C13          5.7820    -0.4530     5.2040 c2         1 15M      -0.168200
     14 C14          5.9070     0.8580     5.0030 c2         1 15M      -0.202200
     15 C15          5.4180     1.8110     6.0330 c3         1 15M       0.173300
     16 C16          4.5230     2.8640     5.3740 c3         1 15M      -0.074400
     17 C17          3.1210     2.2820     5.0750 c3         1 15M      -0.045100
     18 C18          2.1900     3.3820     4.6640 ca         1 15M      -0.062300
     19 C19          2.2880     3.9640     3.3630 ca         1 15M      -0.138000
     20 C20          1.4120     5.0110     2.9760 ca         1 15M      -0.146500
     21 C21          0.4260     5.4890     3.8980 ca         1 15M      -0.135000
     22 C22          0.3170     4.9170     5.2000 ca         1 15M      -0.146500
     23 C23          1.1990     3.8610     5.5830 ca         1 15M      -0.138000
     24 C24         -2.7600    -0.7920     1.6530 c3         1 15M      -0.140100
     25 C25         -2.0010    -1.1930     0.3720 c3         1 15M       0.123800
     26 N           -0.6610    -1.1300     0.3480 ny         1 15M      -0.594800
     27 O1          -0.6530     1.0870    -0.3340 o          1 15M      -0.421100
     28 O9           5.9730    -4.4790     2.6660 oh         1 15M      -0.622800
     29 O11          8.6720    -1.3140     4.0940 oh         1 15M      -0.623800
     30 O15          6.5100     2.4610     6.6510 oh         1 15M      -0.588800
     31 H21A         1.9120     0.8850    -0.5100 hc         1 15M       0.116700
     32 H22A         1.9120    -0.8850    -0.5110 hc         1 15M       0.116700
     33 H31          1.8900    -0.9770     1.8890 hc         1 15M       0.077200
     34 H32          1.5130     0.7410     2.0220 hc         1 15M       0.077200
     35 H41          3.7590     1.2520     0.9970 hc         1 15M       0.110700
     36 H42          3.8500     0.4660     2.5700 hc         1 15M       0.110700
     37 H5           3.9270    -0.7360     1.8890 ha         1 15M       0.211000
     38 H6           4.0930    -1.3940     2.2270 ha         1 15M       0.063000
     39 H71          3.6330    -3.2340     2.7930 hc         1 15M       0.044700
     40 H72          3.5440    -1.5420     3.2470 hc         1 15M       0.044700
     41 H8           4.7290    -2.6430     4.9750 hc         1 15M       0.070700
     42 H9           5.8310    -4.5640     4.7010 h1         1 15M       0.056700
     43 H101         8.0690    -4.1320     4.8190 hc         1 15M       0.065200
     44 H102         8.1100    -3.5070     3.1550 hc         1 15M       0.065200
     45 H11          7.6610    -2.0420     5.7270 h1         1 15M       0.057700
     46 H12          6.4100    -0.9140     3.2400 hc         1 15M       0.057700
     47 H13          5.3250    -0.8190     6.1150 ha         1 15M       0.129000
     48 H14          6.3640     1.2280     4.0930 ha         1 15M       0.144000
     49 H15          4.8490     1.2720     6.7820 h1         1 15M       0.041700
     50 H161         4.9800     3.1910     4.4480 hc         1 15M       0.067700
     51 H162         4.4220     3.7130     6.0410 hc         1 15M       0.067700
     52 H171         2.7350     1.7970     5.9630 hc         1 15M       0.053700
     53 H172         3.1960     1.5570     4.2730 hc         1 15M       0.053700
     54 H19          3.0340     3.6020     2.6670 ha         1 15M       0.141000
     55 H20          1.4240     5.3780     1.9570 ha         1 15M       0.132000
     56 H21         -0.2430     6.2890     3.6050 ha         1 15M       0.142000
     57 H22         -0.4310     5.2810     5.8940 ha         1 15M       0.132000
     58 H23          1.1210     3.4230     6.5710 ha         1 15M       0.141000
     59 H241        -2.2140    -0.0100     2.1670 hc         1 15M       0.078033
     60 H242        -3.7470    -0.4300     1.3900 hc         1 15M       0.078033
     61 H243        -2.8530    -1.6530     2.3030 hc         1 15M       0.078033
     62 H251        -2.3680    -0.5640    -0.4300 hx         1 15M       0.105700
     63 H252        -2.2790    -2.2140     0.1400 hx         1 15M       0.105700
     64 HN          -0.3560    -1.8410    -0.2860 hn         1 15M       0.431300
     65 HO9          6.0510    -5.4140     2.7600 ho         1 15M       0.413000
     66 H1           9.4230    -1.3850     4.6600 ho         1 15M       0.413000
     67 H2           6.4440     2.3670     7.5870 ho         1 15M       0.408000
     68 HN3         -0.3540    -1.3630     1.2720 hn         1 15M       0.431300
@<TRIPOS>BOND
     1     1     2 1   
     2     1    26 1   
     3     1    27 2   
     4     2     3 1   
     5     2    31 1   
     6     2    32 1   
     7     3     4 1   
     8     3    33 1   
     9     3    34 1   
    10     4     5 1   
    11     4    35 1   
    12     4    36 1   
    13     5     6 2   
    14     5    37 1   
    15     6     7 1   
    16     6    38 1   
    17     7     8 1   
    18     7    39 1   
    19     7    40 1   
    20     8     9 1   
    21     8    12 1   
    22     8    41 1   
    23     9    10 1   
    24     9    28 1   
    25     9    42 1   
    26    10    11 1   
    27    10    43 1   
    28    10    44 1   
    29    11    12 1   
    30    11    29 1   
    31    11    45 1   
    32    12    13 1   
    33    12    46 1   
    34    13    14 2   
    35    13    47 1   
    36    14    15 1   
    37    14    48 1   
    38    15    16 1   
    39    15    30 1   
    40    15    49 1   
    41    16    17 1   
    42    16    50 1   
    43    16    51 1   
    44    17    18 1   
    45    17    52 1   
    46    17    53 1   
    47    18    19 ar  
    48    18    23 ar  
    49    19    20 ar  
    50    19    54 1   
    51    20    21 ar  
    52    20    55 1   
    53    21    22 ar  
    54    21    56 1   
    55    22    23 ar  
    56    22    57 1   
    57    23    58 1   
    58    24    25 1   
    59    24    59 1   
    60    24    60 1   
    61    24    61 1   
    62    25    26 1   
    63    25    62 1   
    64    25    63 1   
    65    26    64 1   
    66    28    65 1   
    67    29    66 1   
    68    30    67 1   
    69    68    26 1   
@<TRIPOS>SUBSTRUCTURE
     1 15M         1 TEMP              0 ****  ****    0 ROOT
