@<TRIPOS>MOLECULE
molecule
   67    68     1     0     0
SMALL
bcc


@<TRIPOS>ATOM
      1 C1           0.0000     0.0000     0.0000 c          1 15M       0.656100
      2 C2           1.5080     0.0000     0.0000 c3         1 15M      -0.164400
      3 C3           2.0180     0.0000     1.4420 c3         1 15M      -0.020400
      4 C4           3.5470    -0.0000     1.4430 c3         1 15M      -0.138200
      5 C5           4.0500    -0.0010     2.8640 c2         1 15M      -0.353200
      6 C6           4.9200    -0.9000     3.2500 c2         1 15M      -0.299200
      7 C7           5.5490    -1.8240     2.2390 c3         1 15M      -0.138200
      8 C8           7.0720    -1.7480     2.3560 c3         1 15M      -0.013700
      9 C9           7.5280    -2.3340     3.7030 c3         1 15M       0.156100
     10 C10          8.4460    -3.5290     3.3760 c3         1 15M      -0.149400
     11 C11          8.9690    -3.2280     1.9490 c3         1 15M       0.153100
     12 C12          7.7300    -2.6060     1.2550 c3         1 15M      -0.041500
     13 C13          8.1530    -1.7470     0.0920 c2         1 15M      -0.154200
     14 C14          7.7140    -2.0130    -1.1130 c2         1 15M      -0.199200
     15 C15          8.1370    -1.1540    -2.2760 c3         1 15M       0.179300
     16 C16          8.7550    -2.0360    -3.3630 c3         1 15M      -0.076400
     17 C17          9.0700    -1.1820    -4.5930 c3         1 15M      -0.037100
     18 C18          9.6800    -2.0500    -5.6650 ca         1 15M      -0.082300
     19 C19         11.0500    -2.2170    -5.7220 ca         1 15M      -0.124500
     20 C20         11.6090    -3.0170    -6.7010 ca         1 15M      -0.125500
     21 C21         10.7970    -3.6430    -7.6280 ca         1 15M      -0.131000
     22 C22          9.4270    -3.4720    -7.5740 ca         1 15M      -0.125500
     23 C23          8.8680    -2.6760    -6.5920 ca         1 15M      -0.124500
     24 C24         -2.6480     0.0010    -2.6100 c3         1 15M      -0.112100
     25 C25         -2.1380     0.0010    -1.1670 c3         1 15M       0.110000
     26 N           -0.6730     0.0010    -1.1670 ns         1 15M      -0.590900
     27 O1          -0.6060     0.0000     1.0500 o          1 15M      -0.600100
     28 O9           6.3950    -2.7770     4.4530 oh         1 15M      -0.587800
     29 O11          9.3710    -4.4310     1.2920 oh         1 15M      -0.596800
     30 O15          9.1000    -0.1950    -1.8350 oh         1 15M      -0.604800
     31 H21A         1.8690    -0.8850    -0.5110 hc         1 15M       0.056200
     32 H22A         1.8690     0.8850    -0.5110 hc         1 15M       0.056200
     33 H31          1.6560     0.8840     1.9530 hc         1 15M       0.075700
     34 H32          1.6560    -0.8840     1.9530 hc         1 15M       0.075700
     35 H41          3.9090    -0.8840     0.9320 hc         1 15M       0.027200
     36 H42          3.9090     0.8850     0.9330 hc         1 15M       0.027200
     37 H5           4.6100     0.4860     2.0750 ha         1 15M       0.319000
     38 H6           4.4170    -1.8060     2.9350 ha         1 15M       0.334000
     39 H71          5.2230    -2.8400     2.4260 hc         1 15M       0.042700
     40 H72          5.2480    -1.5270     1.2420 hc         1 15M       0.042700
     41 H8           7.4050    -0.7200     2.2700 hc         1 15M       0.064700
     42 H9           8.0800    -1.5880     4.2620 h1         1 15M       0.042700
     43 H101         9.2700    -3.5750     4.0780 hc         1 15M       0.061700
     44 H102         7.8810    -4.4530     3.3840 hc         1 15M       0.061700
     45 H11          9.7820    -2.5130     1.9850 h1         1 15M       0.043700
     46 H12          7.0510    -3.3850     0.9300 hc         1 15M       0.076700
     47 H13          8.8200    -0.9080     0.2520 ha         1 15M       0.143000
     48 H14          7.0460    -2.8510    -1.2740 ha         1 15M       0.132000
     49 H15          7.2720    -0.6380    -2.6770 h1         1 15M       0.033700
     50 H161         9.6680    -2.4830    -2.9890 hc         1 15M       0.060200
     51 H162         8.0550    -2.8170    -3.6350 hc         1 15M       0.060200
     52 H171         8.1570    -0.7350    -4.9670 hc         1 15M       0.050200
     53 H172         9.7690    -0.4010    -4.3200 hc         1 15M       0.050200
     54 H19         11.6860    -1.7260    -4.9950 ha         1 15M       0.130000
     55 H20         12.6840    -3.1500    -6.7450 ha         1 15M       0.129000
     56 H21         11.2350    -4.2680    -8.3970 ha         1 15M       0.129000
     57 H22          8.7910    -3.9630    -8.3010 ha         1 15M       0.129000
     58 H23          7.7940    -2.5420    -6.5490 ha         1 15M       0.130000
     59 H241        -2.2910    -0.8860    -3.1190 hc         1 15M       0.042033
     60 H242        -3.7310     0.0060    -2.6100 hc         1 15M       0.042033
     61 H243        -2.2830     0.8830    -3.1220 hc         1 15M       0.042033
     62 H251        -2.4990     0.8860    -0.6570 h1         1 15M       0.054200
     63 H252        -2.4990    -0.8830    -0.6560 h1         1 15M       0.054200
     64 HN          -0.1720    -0.0200    -2.0330 hn         1 15M       0.310500
     65 HO9          6.6260    -2.8370     5.3650 ho         1 15M       0.405000
     66 H1          10.2950    -4.5650     1.4200 ho         1 15M       0.404000
     67 H2           8.7110     0.6640    -1.8340 ho         1 15M       0.400000
@<TRIPOS>BOND
     1     1     2 1
     2     1    26 1
     3     1    27 2
     4     2     3 1
     5     2    31 1
     6     2    32 1
     7     3     4 1
     8     3    33 1
     9     3    34 1
    10     4     5 1
    11     4    35 1
    12     4    36 1
    13     5     6 2
    14     5    37 1
    15     6     7 1
    16     6    38 1
    17     7     8 1
    18     7    39 1
    19     7    40 1
    20     8     9 1
    21     8    12 1
    22     8    41 1
    23     9    10 1
    24     9    28 1
    25     9    42 1
    26    10    11 1
    27    10    43 1
    28    10    44 1
    29    11    12 1
    30    11    29 1
    31    11    45 1
    32    12    13 1
    33    12    46 1
    34    13    14 2
    35    13    47 1
    36    14    15 1
    37    14    48 1
    38    15    16 1
    39    15    30 1
    40    15    49 1
    41    16    17 1
    42    16    50 1
    43    16    51 1
    44    17    18 1
    45    17    52 1
    46    17    53 1
    47    18    19 ar
    48    18    23 ar
    49    19    20 ar
    50    19    54 1
    51    20    21 ar
    52    20    55 1
    53    21    22 ar
    54    21    56 1
    55    22    23 ar
    56    22    57 1
    57    23    58 1
    58    24    25 1
    59    24    59 1
    60    24    60 1
    61    24    61 1
    62    25    26 1
    63    25    62 1
    64    25    63 1
    65    26    64 1
    66    28    65 1
    67    29    66 1
    68    30    67 1
@<TRIPOS>SUBSTRUCTURE
     1 15M         1 TEMP              0 ****  ****    0 ROOT
