@<TRIPOS>MOLECULE
15N
   20    21     1     0     0
SMALL
bcc


@<TRIPOS>ATOM
      1 OAA         1.1270    1.2340    0.5080 o         1 15N     -0.812300
      2 CAJ         1.4310    0.0640    0.1590 c         1 15N      0.934600
      3 OAB         1.1230   -0.9970    0.7570 o         1 15N     -0.812300
      4 CAM         2.2100   -0.1070   -1.1910 c3        1 15N     -0.032900
      5 OAI         3.6020    0.1380   -0.9130 os        1 15N     -0.284900
      6 CAL         4.3580    0.3690   -2.0370 ca        1 15N      0.086100
      7 CAF         5.7520    0.2880   -1.9120 ca        1 15N     -0.146000
      8 CAD         6.5550    0.5340   -3.0240 ca        1 15N     -0.146000
      9 CAC         5.9870    0.8550   -4.2560 ca        1 15N     -0.162000
     10 CAE         4.6030    0.9500   -4.3940 ca        1 15N     -0.140000
     11 CAK         3.7860    0.7130   -3.2830 ca        1 15N      0.061100
     12 OAH         2.4210    0.8080   -3.4620 os        1 15N     -0.346900
     13 CAG         1.6850    0.8710   -2.2260 c3        1 15N      0.103400
     14 H2          2.1210   -1.1640   -1.5560 h1        1 15N      0.049700
     15 H3          6.1870    0.0320   -0.9370 ha        1 15N      0.142000
     16 H4          7.6480    0.4700   -2.9250 ha        1 15N      0.114000
     17 H5          6.6310    1.0390   -5.1260 ha        1 15N      0.113000
     18 H6          4.1440    1.2080   -5.3570 ha        1 15N      0.131000
     19 H7          0.6370    0.6130   -2.5260 h1        1 15N      0.073700
     20 H8          1.7350    1.9180   -1.8270 h1        1 15N      0.073700
@<TRIPOS>BOND
     1    1    2 1   
     2    2    3 1   
     3    2    4 1   
     4    4    5 1   
     5    4   13 1   
     6    4   14 1   
     7    5    6 1   
     8    6    7 ar  
     9    6   11 ar  
    10    7    8 ar  
    11    7   15 1   
    12    8    9 ar  
    13    8   16 1   
    14    9   10 ar  
    15    9   17 1   
    16   10   11 ar  
    17   10   18 1   
    18   11   12 1   
    19   12   13 1   
    20   13   19 1   
    21   13   20 1   
@<TRIPOS>SUBSTRUCTURE
     1 15N         1 TEMP              0 ****  ****    0 ROOT
