@<TRIPOS>MOLECULE
molecule
   20    21     1     0     0
SMALL
bcc


@<TRIPOS>ATOM
      1 OAA          0.0000     0.0000     0.0000 o          1 15N      -0.819800
      2 CAJ          1.3420     0.0000     0.0000 c          1 15N       0.897600
      3 OAB          1.9470     0.0000     1.0460 o          1 15N      -0.819800
      4 CAM          2.0950     0.0020    -1.3050 c3         1 15N       0.000100
      5 OAI          3.5020    -0.0850    -1.0520 os         1 15N      -0.286900
      6 CAL          4.3290     0.1980    -2.0940 ca         1 15N       0.088100
      7 CAF          5.6550    -0.2070    -2.0400 ca         1 15N      -0.142000
      8 CAD          6.5090     0.0770    -3.0890 ca         1 15N      -0.145000
      9 CAC          6.0460     0.7670    -4.1930 ca         1 15N      -0.160000
     10 CAE          4.7250     1.1730    -4.2550 ca         1 15N      -0.139000
     11 CAK          3.8620     0.8890    -3.2060 ca         1 15N       0.065100
     12 OAH          2.5640     1.2870    -3.2830 os         1 15N      -0.346900
     13 CAG          1.8240     1.3120    -2.0580 c3         1 15N       0.111400
     14 H2           1.7830    -0.8380    -1.9140 h1         1 15N       0.054700
     15 H3           6.0220    -0.7460    -1.1750 ha         1 15N       0.140000
     16 H4           7.5430    -0.2410    -3.0450 ha         1 15N       0.114000
     17 H5           6.7180     0.9900    -5.0130 ha         1 15N       0.113000
     18 H6           4.3640     1.7110    -5.1230 ha         1 15N       0.128000
     19 H7           0.7660     1.3960    -2.2730 h1         1 15N       0.074200
     20 H8           2.1470     2.1520    -1.4550 h1         1 15N       0.074200
@<TRIPOS>BOND
     1     8     9 ar  
     2     8     7 ar  
     3     9    10 ar  
     4     7     6 ar  
     5    10    11 ar  
     6     6    11 ar  
     7     6     5 1   
     8    11    12 1   
     9     5     4 1   
    10    12    13 1   
    11     4    13 1   
    12     4     2 1   
    13     3     2 1   
    14     2     1 1   
    15     4    14 1   
    16     7    15 1   
    17     8    16 1   
    18     9    17 1   
    19    10    18 1   
    20    13    19 1   
    21    13    20 1   
@<TRIPOS>SUBSTRUCTURE
     1 15N         1 TEMP              0 ****  ****    0 ROOT
