@<TRIPOS>MOLECULE
15N
   20    21     1     0     0
SMALL
bcc


@<TRIPOS>ATOM
      1 OAA          0.5500     1.0680     0.1440 o          1 15N      -0.812300
      2 CAJ          1.1750    -0.0160     0.0230 c          1 15N       0.934600
      3 OAB          1.2700    -0.9240     0.8870 o          1 15N      -0.812300
      4 CAM          1.8510    -0.3100    -1.3610 c3         1 15N      -0.032900
      5 OAI          3.1110     0.3860    -1.3760 os         1 15N      -0.284900
      6 CAL          3.6560     0.5170    -2.6310 ca         1 15N       0.086100
      7 CAF          5.0090     0.8730    -2.7200 ca         1 15N      -0.146000
      8 CAD          5.5950     1.0340    -3.9740 ca         1 15N      -0.146000
      9 CAC          4.8510     0.8400    -5.1370 ca         1 15N      -0.162000
     10 CAE          3.5020     0.4960    -5.0660 ca         1 15N      -0.140000
     11 CAK          2.9010     0.3400    -3.8130 ca         1 15N       0.061100
     12 OAH          1.5660    -0.0110    -3.7830 os         1 15N      -0.346900
     13 CAG          0.9560     0.1660    -2.4910 c3         1 15N       0.103400
     14 H2           2.0710    -1.4060    -1.4580 h1         1 15N       0.049700
     15 H3           5.5850     1.0210    -1.7960 ha         1 15N       0.142000
     16 H4           6.6550     1.3140    -4.0420 ha         1 15N       0.114000
     17 H5           5.3270     0.9630    -6.1200 ha         1 15N       0.113000
     18 H6           2.9040     0.3470    -5.9740 ha         1 15N       0.131000
     19 H7           0.7050     1.2500    -2.3540 h1         1 15N       0.073700
     20 H8           0.0220    -0.4500    -2.5500 h1         1 15N       0.073700
@<TRIPOS>BOND
     1     1     2 1   
     2     2     3 1   
     3     2     4 1   
     4     4     5 1   
     5     4    13 1   
     6     4    14 1   
     7     5     6 1   
     8     6     7 ar  
     9     6    11 ar  
    10     7     8 ar  
    11     7    15 1   
    12     8     9 ar  
    13     8    16 1   
    14     9    10 ar  
    15     9    17 1   
    16    10    11 ar  
    17    10    18 1   
    18    11    12 1   
    19    12    13 1   
    20    13    19 1   
    21    13    20 1   
@<TRIPOS>SUBSTRUCTURE
     1 15N         1 TEMP              0 ****  ****    0 ROOT
