@<TRIPOS>MOLECULE
15O
   18    19     1     0     0
SMALL
bcc


@<TRIPOS>ATOM
      1 C01        -0.0160    0.0010   -0.0370 ca        1 15O     -0.122000
      2 C02         1.3990   -0.0000   -0.0450 ca        1 15O     -0.125000
      3 C03         2.1030    0.0000    1.1340 ca        1 15O     -0.112000
      4 C04         1.4240    0.0010    2.3840 ca        1 15O     -0.030000
      5 C05         0.0040    0.0020    2.3920 ca        1 15O     -0.031000
      6 C06        -0.6980    0.0020    1.1550 ca        1 15O     -0.120000
      7 C07        -0.6950    0.0030    3.6290 ca        1 15O     -0.116000
      8 C08        -0.0090    0.0020    4.8180 ca        1 15O     -0.123000
      9 C09         1.4050    0.0020    4.8270 ca        1 15O     -0.123000
     10 C10         2.1030    0.0010    3.6390 ca        1 15O      0.029400
     11 CL1         3.8070    0.0000    3.6900 cl        1 15O     -0.096400
     12 H1         -0.5570    0.0010   -0.9940 ha        1 15O      0.134000
     13 H2          1.9280   -0.0010   -1.0100 ha        1 15O      0.135000
     14 H3          3.2040   -0.0010    1.1240 ha        1 15O      0.145000
     15 H4         -1.7980    0.0020    1.1750 ha        1 15O      0.134000
     16 H5         -1.7960    0.0030    3.6130 ha        1 15O      0.136000
     17 H6         -0.5440    0.0030    5.7790 ha        1 15O      0.138000
     18 H7          1.9340    0.0020    5.7930 ha        1 15O      0.147000
@<TRIPOS>BOND
     1    1    2 ar  
     2    1    6 ar  
     3    1   12 1   
     4    2    3 ar  
     5    2   13 1   
     6    3    4 ar  
     7    3   14 1   
     8    4    5 ar  
     9    4   10 ar  
    10    5    6 ar  
    11    5    7 ar  
    12    6   15 1   
    13    7    8 ar  
    14    7   16 1   
    15    8    9 ar  
    16    8   17 1   
    17    9   10 ar  
    18    9   18 1   
    19   10   11 1   
@<TRIPOS>SUBSTRUCTURE
     1 15O         1 TEMP              0 ****  ****    0 ROOT
