@<TRIPOS>MOLECULE
molecule
   18    19     1     0     0
SMALL
bcc


@<TRIPOS>ATOM
      1 C01          0.0000     0.0000     0.0000 ca         1 15O      -0.120000
      2 C02          1.3930     0.0000     0.0000 ca         1 15O      -0.123000
      3 C03          2.0950     0.0000     1.1670 ca         1 15O      -0.112000
      4 C04          1.4060     0.0010     2.3910 ca         1 15O      -0.033000
      5 C05         -0.0120     0.0030     2.3910 ca         1 15O      -0.028000
      6 C06         -0.7010     0.0020     1.1670 ca         1 15O      -0.117000
      7 C07         -0.7000     0.0030     3.6170 ca         1 15O      -0.113000
      8 C08         -0.0000     0.0020     4.7840 ca         1 15O      -0.121000
      9 C09          1.3940     0.0020     4.7840 ca         1 15O      -0.119000
     10 C10          2.0950     0.0010     3.6170 ca         1 15O       0.039400
     11 Cl1          3.8310    -0.0000     3.6430 cl         1 15O      -0.107400
     12 H1          -0.5340    -0.0000    -0.9430 ha         1 15O       0.130000
     13 H2           1.9270    -0.0020    -0.9430 ha         1 15O       0.131000
     14 H3           3.1780     0.0000     1.1520 ha         1 15O       0.146000
     15 H4          -1.7840     0.0020     1.1520 ha         1 15O       0.135000
     16 H5          -1.7830     0.0030     3.6320 ha         1 15O       0.136000
     17 H6          -0.5350     0.0030     5.7260 ha         1 15O       0.135000
     18 H7           1.9270     0.0010     5.7270 ha         1 15O       0.142000
@<TRIPOS>BOND
     1    11    10 1
     2    10     9 ar
     3    10     4 ar
     4     3     4 ar
     5     3     2 ar
     6     9     8 ar
     7     4     5 ar
     8     2     1 ar
     9     8     7 ar
    10     5     7 ar
    11     5     6 ar
    12     1     6 ar
    13     1    12 1
    14     2    13 1
    15     3    14 1
    16     6    15 1
    17     7    16 1
    18     8    17 1
    19     9    18 1
@<TRIPOS>SUBSTRUCTURE
     1 15O         1 TEMP              0 ****  ****    0 ROOT
