@<TRIPOS>MOLECULE
15O
   18    19     1     0     0
SMALL
bcc


@<TRIPOS>ATOM
      1 C01         -0.0070    -0.0020     0.0120 ca         1 15O      -0.122000
      2 C02          1.4080    -0.0000     0.0180 ca         1 15O      -0.125000
      3 C03          2.0990     0.0020     1.2040 ca         1 15O      -0.112000
      4 C04          1.4080     0.0030     2.4470 ca         1 15O      -0.030000
      5 C05         -0.0120     0.0010     2.4410 ca         1 15O      -0.031000
      6 C06         -0.7010    -0.0010     1.1960 ca         1 15O      -0.120000
      7 C07         -0.7240     0.0020     3.6710 ca         1 15O      -0.116000
      8 C08         -0.0490     0.0040     4.8660 ca         1 15O      -0.123000
      9 C09          1.3640     0.0060     4.8900 ca         1 15O      -0.123000
     10 C10          2.0750     0.0050     3.7090 ca         1 15O       0.029400
     11 Cl1          3.7770     0.0070     3.7770 cl         1 15O      -0.096400
     12 H1          -0.5390    -0.0040    -0.9510 ha         1 15O       0.134000
     13 H2           1.9460    -0.0010    -0.9420 ha         1 15O       0.135000
     14 H3           3.2000     0.0030     1.2050 ha         1 15O       0.145000
     15 H4          -1.8020    -0.0030     1.2060 ha         1 15O       0.134000
     16 H5          -1.8240     0.0000     3.6440 ha         1 15O       0.136000
     17 H6          -0.5950     0.0050     5.8220 ha         1 15O       0.138000
     18 H7           1.8830     0.0080     5.8610 ha         1 15O       0.147000
@<TRIPOS>BOND
     1     1     2 ar  
     2     1     6 ar  
     3     1    12 1   
     4     2     3 ar  
     5     2    13 1   
     6     3     4 ar  
     7     3    14 1   
     8     4     5 ar  
     9     4    10 ar  
    10     5     6 ar  
    11     5     7 ar  
    12     6    15 1   
    13     7     8 ar  
    14     7    16 1   
    15     8     9 ar  
    16     8    17 1   
    17     9    10 ar  
    18     9    18 1   
    19    10    11 1   
@<TRIPOS>SUBSTRUCTURE
     1 15O         1 TEMP              0 ****  ****    0 ROOT
