@<TRIPOS>MOLECULE
molecule
   28    29     1     0     0
SMALL
bcc


@<TRIPOS>ATOM
      1 CAK          0.0000     0.0000     0.0000 ca         1 15Q      -0.144000
      2 CAO          1.3800     0.0000     0.0000 ca         1 15Q       0.113900
      3 FAD          2.0560     0.0020    -1.1700 f          1 15Q      -0.129900
      4 CAM          2.0760     0.0000     1.2040 ca         1 15Q       0.075100
      5 OAB          3.4350     0.0010     1.2020 oh         1 15Q      -0.508100
      6 CAG          1.3850    -0.0010     2.4070 ca         1 15Q      -0.136000
      7 CAI          0.0050    -0.0030     2.4120 ca         1 15Q      -0.108000
      8 CAR         -0.6960    -0.0020     1.2080 cp         1 15Q      -0.026000
      9 CAS         -2.1800     0.0030     1.2120 cp         1 15Q      -0.064000
     10 CAP         -2.8760    -0.9170     1.9890 ca         1 15Q       0.079400
     11 Cl          -2.0140    -2.0710     2.9560 cl         1 15Q      -0.085400
     12 CAJ         -2.8760     0.9350     0.4400 ca         1 15Q      -0.065000
     13 CAH         -4.2550     0.9450     0.4380 ca         1 15Q      -0.206000
     14 CAN         -4.9600     0.0310     1.2050 ca         1 15Q       0.168100
     15 OAC         -6.3180     0.0450     1.2010 oh         1 15Q      -0.472100
     16 CAQ         -4.2720    -0.9060     1.9880 ca         1 15Q      -0.147900
     17 CAF         -5.0190    -1.8780     2.8090 ce         1 15Q       0.419800
     18 NAL         -6.3140    -1.8660     2.8060 n2         1 15Q      -0.404200
     19 OAA         -7.0310    -2.7990     3.5940 oh         1 15Q      -0.393500
     20 H1          -0.5420     0.0010    -0.9380 ha         1 15Q       0.151000
     21 H2           3.7510    -0.8790     1.3240 ho         1 15Q       0.423000
     22 H3           1.9290    -0.0020     3.3440 ha         1 15Q       0.149000
     23 H4          -0.5330    -0.0040     3.3520 ha         1 15Q       0.149000
     24 H5          -2.3300     1.6520    -0.1610 ha         1 15Q       0.148000
     25 H6          -4.7890     1.6710    -0.1630 ha         1 15Q       0.144000
     26 H7          -6.6290     0.1760     0.3210 ho         1 15Q       0.423000
     27 H8          -4.4850    -2.6010     3.4130 h4         1 15Q       0.014800
     28 H11         -7.9560    -2.6290     3.5180 ho         1 15Q       0.432000
@<TRIPOS>BOND
     1     3     2 1
     2     2     1 ar
     3     2     4 ar
     4     5     4 1
     5     1     8 ar
     6     4     6 ar
     7    11    10 1
     8     8     9 1
     9     8     7 ar
    10     6     7 ar
    11    10     9 ar
    12    10    16 ar
    13     9    12 ar
    14    18    19 1
    15    18    17 2
    16    17    16 1
    17    16    14 ar
    18    12    13 ar
    19    14    13 ar
    20    14    15 1
    21     1    20 1
    22     5    21 1
    23     6    22 1
    24     7    23 1
    25    12    24 1
    26    13    25 1
    27    15    26 1
    28    17    27 1
    29    19    28 1
@<TRIPOS>SUBSTRUCTURE
     1 15Q         1 TEMP              0 ****  ****    0 ROOT
