@<TRIPOS>MOLECULE
15Q
   28    29     1     0     0
SMALL
bcc


@<TRIPOS>ATOM
      1 CAK         -0.1190     0.1900     0.1180 ca         1 15Q      -0.099000
      2 CAO          1.2810     0.1980     0.0480 ca         1 15Q       0.034900
      3 FAD          1.9130     0.3880    -1.1390 f          1 15Q      -0.144900
      4 CAM          2.0490     0.0050     1.2210 ca         1 15Q       0.104100
      5 OAB          3.4210     0.0020     1.2170 oh         1 15Q      -0.488100
      6 CAG          1.4070    -0.1900     2.4520 ca         1 15Q      -0.142000
      7 CAI          0.0180    -0.1910     2.5090 ca         1 15Q      -0.093000
      8 CAR         -0.7510    -0.0060     1.3500 cp         1 15Q      -0.052000
      9 CAS         -2.2120     0.0090     1.4460 cp         1 15Q      -0.071000
     10 CAP         -3.0200    -0.9190     0.7680 ca         1 15Q       0.075400
     11 Cl          -2.3120    -2.1300    -0.1940 cl         1 15Q      -0.069400
     12 CAJ         -2.8240     0.9840     2.2470 ca         1 15Q      -0.065000
     13 CAH         -4.2050     1.0470     2.3710 ca         1 15Q      -0.218000
     14 CAN         -5.0030     0.1190     1.6850 ca         1 15Q       0.162100
     15 OAC         -6.3730     0.1200     1.7870 oh         1 15Q      -0.478100
     16 CAQ         -4.4190    -0.8760     0.8760 ca         1 15Q      -0.152900
     17 CAF         -5.2480    -1.8740     0.1890 ce         1 15Q       0.408800
     18 NAL         -6.1090    -1.5270    -0.7260 n2         1 15Q      -0.413200
     19 OAA         -6.7930    -2.5180    -1.2570 oh         1 15Q      -0.357500
     20 H1          -0.7090     0.3370    -0.7990 ha         1 15Q       0.159000
     21 H2           3.7180     0.1340     0.3030 ho         1 15Q       0.432000
     22 H3           2.0150    -0.3400     3.3560 ha         1 15Q       0.158000
     23 H4          -0.4860    -0.3450     3.4750 ha         1 15Q       0.143000
     24 H5          -2.1920     1.7110     2.7820 ha         1 15Q       0.146000
     25 H6          -4.6720     1.8180     2.9990 ha         1 15Q       0.142000
     26 H7          -6.6300     0.8770     2.3350 ho         1 15Q       0.423000
     27 H8          -5.0790    -2.9240     0.5070 h4         1 15Q       0.016800
     28 H11         -7.3850    -2.0880    -1.9050 ho         1 15Q       0.440000
@<TRIPOS>BOND
     1     1     2 ar  
     2     1     8 ar  
     3     1    20 1   
     4     2     3 1   
     5     2     4 ar  
     6     4     5 1   
     7     4     6 ar  
     8     5    21 1   
     9     6     7 ar  
    10     6    22 1   
    11     7     8 ar  
    12     7    23 1   
    13     8     9 1   
    14     9    10 ar  
    15     9    12 ar  
    16    10    11 1   
    17    10    16 ar  
    18    12    13 ar  
    19    12    24 1   
    20    13    14 ar  
    21    13    25 1   
    22    14    15 1   
    23    14    16 ar  
    24    15    26 1   
    25    16    17 1   
    26    17    18 2   
    27    17    27 1   
    28    18    19 1   
    29    19    28 1   
@<TRIPOS>SUBSTRUCTURE
     1 15Q         1 TEMP              0 ****  ****    0 ROOT
