@<TRIPOS>MOLECULE
15Q
   28    30     1     0     0
SMALL
bcc


@<TRIPOS>ATOM
      1 CAK          0.0000     0.0000     0.0000 ca         1 15Q      -0.108000
      2 CAO          1.3800     0.0000     0.0000 ca         1 15Q       0.043000
      3 FAD          2.0560     0.0020    -1.1700 f          1 15Q      -0.085000
      4 CAM          2.0760     0.0000     1.2040 ca         1 15Q       0.057000
      5 OAB          3.4350     0.0010     1.2020 oh         1 15Q      -0.241000
      6 CAG          1.3850    -0.0010     2.4070 ca         1 15Q      -0.116000
      7 CAI          0.0050    -0.0030     2.4120 ca         1 15Q      -0.084000
      8 CAR         -0.6960    -0.0020     1.2080 ca         1 15Q      -0.029000
      9 CAS         -2.1800     0.0030     1.2120 c2         1 15Q      -0.084000
     10 CAP         -2.8760    -0.9170     1.9890 c2         1 15Q      -0.019000
     11 Cl          -2.0140    -2.0710     2.9560 cl         1 15Q       0.126000
     12 CAJ         -2.8760     0.9350     0.4400 c2         1 15Q      -0.010000
     13 CAH         -4.2550     0.9450     0.4380 c2         1 15Q      -0.204000
     14 CAN         -4.9600     0.0310     1.2050 c2         1 15Q       0.118000
     15 OAC         -6.3180     0.0450     1.2010 oh         1 15Q      -0.221000
     16 CAQ         -4.2720    -0.9060     1.9880 c3         1 15Q      -0.182000
     17 CAF         -5.0190    -1.8780     2.8090 c2         1 15Q      -0.386000
     18 NAL         -6.3140    -1.8660     2.8060 n2         1 15Q       0.108000
     19 OAA         -7.0310    -2.7990     3.5940 oh         1 15Q      -0.229000
     20 H1          -0.5420     0.0010    -0.9380 ha         1 15Q       0.124000
     21 H2           3.7510    -0.8790     1.3240 ho         1 15Q       0.206000
     22 H3           1.9290    -0.0020     3.3440 ha         1 15Q       0.120000
     23 H4          -0.5330    -0.0040     3.3520 ha         1 15Q       0.123000
     24 H5          -2.3300     1.6520    -0.1610 ha         1 15Q       0.114000
     25 H6          -4.7890     1.6710    -0.1630 ha         1 15Q       0.119000
     26 H7          -6.6230     0.9370     1.2150 ho         1 15Q       0.213000
     27 H8          -4.8700    -1.9670     1.7390 DU         1 15Q       0.322000
     28 H11         -7.9410    -2.5510     3.6230 ho         1 15Q       0.205000
@<TRIPOS>BOND
     1     1     2 1   
     2     1     8 1   
     3     1    20 1   
     4     2     3 1   
     5     2     4 1   
     6     4     5 1   
     7     4     6 1   
     8     5    21 1   
     9     6     7 1   
    10     6    22 1   
    11     7     8 1   
    12     7    23 1   
    13     8     9 1   
    14     9    10 1   
    15     9    12 1   
    16    10    11 1   
    17    10    16 1   
    18    12    13 1   
    19    12    24 1   
    20    13    14 1   
    21    13    25 1   
    22    14    15 1   
    23    14    16 1   
    24    15    26 1   
    25    16    17 1   
    26    16    27 1   
    27    17    18 1   
    28    17    27 1   
    29    18    19 1   
    30    19    28 1   
@<TRIPOS>SUBSTRUCTURE
     1 15Q         1 TEMP              0 ****  ****    0 ROOT
