@<TRIPOS>MOLECULE
molecule
   73    79     1     0     0
SMALL
bcc


@<TRIPOS>ATOM
      1 OAA          0.0000     0.0000     0.0000 o          1 15R      -0.643500
      2 CBA          1.2150     0.0000     0.0000 c          1 15R       0.711100
      3 NAY          1.8940     0.0000     1.1650 ns         1 15R      -0.587900
      4 CAV          3.3520     0.1230     1.1740 c3         1 15R       0.110000
      5 CBO          3.9580    -0.7000     0.0420 c3         1 15R       0.149000
      6 CBJ          3.3220    -0.3210    -1.2720 ca         1 15R      -0.068300
      7 CBG          1.9610    -0.0070    -1.2760 ca         1 15R      -0.132600
      8 CAJ          1.3200     0.3040    -2.4730 ca         1 15R      -0.065000
      9 CAH          2.0500     0.3170    -3.6450 ca         1 15R      -0.135000
     10 CAI          3.3990     0.0310    -3.6260 ca         1 15R      -0.110000
     11 CBF          4.0500    -0.2770    -2.4370 ca         1 15R      -0.078300
     12 CAP          5.5220    -0.5570    -2.5050 c3         1 15R      -0.050100
     13 CAS          6.1180    -1.0280    -1.1900 c3         1 15R       0.100000
     14 NBQ          5.4000    -0.4390    -0.0550 n          1 15R      -0.482800
     15 CBC          6.0400     0.3110     0.8630 c          1 15R       0.672100
     16 OAC          5.4130     0.8330     1.7630 o          1 15R      -0.611100
     17 CBN          7.5320     0.5020     0.7750 c3         1 15R      -0.144700
     18 CAR          8.2320    -0.8380     1.0130 c3         1 15R      -0.089900
     19 CAU          9.7470    -0.6460     0.8880 c3         1 15R       0.102000
     20 CAQ          7.9800     1.5100     1.8350 c3         1 15R      -0.089900
     21 CAT          9.4920     1.7270     1.7190 c3         1 15R       0.102000
     22 NBP         10.1660     0.4240     1.8030 n          1 15R      -0.489800
     23 CBB         11.1480     0.2150     2.7010 c          1 15R       0.681700
     24 OAB         11.4210     1.0750     3.5160 o          1 15R      -0.581100
     25 CBH         11.8930    -1.0600     2.6960 ca         1 15R      -0.179600
     26 CAO         12.4840    -1.5240     1.5180 ca         1 15R      -0.070000
     27 CBE         12.0180    -1.8060     3.8720 ca         1 15R       0.184900
     28 FAE         11.4550    -1.3640     5.0180 f          1 15R      -0.118900
     29 CAL         12.7180    -2.9990     3.8590 ca         1 15R      -0.172000
     30 CAK         13.2940    -3.4520     2.6860 ca         1 15R      -0.071000
     31 CBD         13.1780    -2.7140     1.5200 ca         1 15R      -0.104300
     32 CAW         13.8140    -3.2160     0.2490 c3         1 15R      -0.043400
     33 CBI         15.2210    -2.6840     0.1480 cc         1 15R       0.385900
     34 NAX         15.6950    -1.9190     1.0860 nd         1 15R      -0.429300
     35 NAZ         16.9890    -1.3970     1.0500 ns         1 15R      -0.305900
     36 CBK         17.8320    -1.6600     0.0300 c          1 15R       0.682100
     37 OAD         18.9580    -1.1940     0.0200 o          1 15R      -0.629500
     38 CBM         17.3680    -2.5170    -1.0660 ca         1 15R      -0.132600
     39 CBL         16.0550    -3.0360    -1.0000 ca         1 15R      -0.138900
     40 CAM         15.5860    -3.8600    -2.0270 ca         1 15R      -0.123000
     41 CAF         16.4040    -4.1590    -3.0800 ca         1 15R      -0.103000
     42 CAG         17.6970    -3.6560    -3.1460 ca         1 15R      -0.130000
     43 CAN         18.1830    -2.8320    -2.1540 ca         1 15R      -0.062000
     44 H1           3.7340    -0.2380     2.1220 h1         1 15R       0.081700
     45 H2           3.7930    -1.7540     0.2320 h1         1 15R       0.068700
     46 H3           0.2600     0.5280    -2.4850 ha         1 15R       0.160000
     47 H4           1.5610     0.5540    -4.5830 ha         1 15R       0.137000
     48 H5           3.9600     0.0450    -4.5530 ha         1 15R       0.130000
     49 H6           5.6920    -1.3210    -3.2530 hc         1 15R       0.057700
     50 H7           6.0310     0.3510    -2.8070 hc         1 15R       0.057700
     51 H8           6.0470    -2.1080    -1.1350 h1         1 15R       0.054700
     52 H9           7.1590    -0.7310    -1.1450 h1         1 15R       0.054700
     53 H10          7.7950     0.8740    -0.2080 hc         1 15R       0.064700
     54 H11          7.8970    -1.5560     0.2750 hc         1 15R       0.064950
     55 H12          7.9940    -1.1960     2.0080 hc         1 15R       0.064950
     56 H13         10.2510    -1.5680     1.1540 h1         1 15R       0.059200
     57 H14          9.9940    -0.3710    -0.1300 h1         1 15R       0.059200
     58 H15          7.7460     1.1250     2.8200 hc         1 15R       0.064950
     59 H16          7.4670     2.4510     1.6770 hc         1 15R       0.064950
     60 H17          9.8300     2.3620     2.5300 h1         1 15R       0.059200
     61 H18          9.7200     2.1920     0.7670 h1         1 15R       0.059200
     62 H19         12.3950    -0.9490     0.6040 ha         1 15R       0.142000
     63 H20         12.8140    -3.5800     4.7680 ha         1 15R       0.153000
     64 H21         13.8410    -4.3870     2.6800 ha         1 15R       0.140000
     65 H22         13.2370    -2.8740    -0.6020 hc         1 15R       0.066700
     66 H23         13.8360    -4.2990     0.2600 hc         1 15R       0.066700
     67 H24         17.2990    -0.8140     1.8010 hn         1 15R       0.372500
     68 H25         14.5800    -4.2580    -1.9890 ha         1 15R       0.135000
     69 H26         16.0410    -4.8050    -3.8710 ha         1 15R       0.135000
     70 H27         18.3270    -3.9070    -3.9910 ha         1 15R       0.140000
     71 H28         19.1920    -2.4440    -2.2110 ha         1 15R       0.163000
     72 H29          1.3960    -0.0840     2.0290 hn         1 15R       0.334500
     73 H30          3.6240     1.1630     1.0450 h1         1 15R       0.081700
@<TRIPOS>BOND
     1     1     2 2
     2     2     3 1
     3     2     7 1
     4     3     4 1
     5     8     7 ar
     6     8     9 ar
     7     7     6 ar
     8     4     5 1
     9     9    10 ar
    10     6     5 1
    11     6    11 ar
    12     5    14 1
    13    10    11 ar
    14    11    12 1
    15    13    14 1
    16    13    12 1
    17    14    15 1
    18    15    16 2
    19    15    17 1
    20    18    17 1
    21    18    19 1
    22    17    20 1
    23    24    23 2
    24    19    22 1
    25    20    21 1
    26    23    22 1
    27    23    25 1
    28    22    21 1
    29    26    25 ar
    30    26    31 ar
    31    32    31 1
    32    32    33 1
    33    25    27 ar
    34    40    41 ar
    35    40    39 ar
    36    41    42 ar
    37    31    30 ar
    38    27    28 1
    39    27    29 ar
    40    30    29 ar
    41    39    33 1
    42    39    38 ar
    43    42    43 ar
    44    33    34 2
    45    34    35 1
    46    38    43 ar
    47    38    36 1
    48    35    36 1
    49    36    37 2
    50     4    44 1
    51     5    45 1
    52     8    46 1
    53     9    47 1
    54    10    48 1
    55    12    49 1
    56    12    50 1
    57    13    51 1
    58    13    52 1
    59    17    53 1
    60    18    54 1
    61    18    55 1
    62    19    56 1
    63    19    57 1
    64    20    58 1
    65    20    59 1
    66    21    60 1
    67    21    61 1
    68    26    62 1
    69    29    63 1
    70    30    64 1
    71    32    65 1
    72    32    66 1
    73    35    67 1
    74    40    68 1
    75    41    69 1
    76    42    70 1
    77    43    71 1
    78     3    72 1
    79     4    73 1
@<TRIPOS>SUBSTRUCTURE
     1 15R         1 TEMP              0 ****  ****    0 ROOT
