@<TRIPOS>MOLECULE
15R
   73    79     1     0     0
SMALL
bcc


@<TRIPOS>ATOM
      1 OAA          0.0000     0.0000     0.0000 o          1 15R      -0.683500
      2 CBA          1.2150     0.0000     0.0000 c          1 15R       0.635100
      3 NAY          1.8940     0.0000     1.1650 ns         1 15R      -0.190900
      4 CAV          3.3520     0.1230     1.1740 c3         1 15R       0.020000
      5 CBO          3.9580    -0.7000     0.0420 c3         1 15R       0.088000
      6 CBJ          3.3220    -0.3210    -1.2720 ca         1 15R      -0.081300
      7 CBG          1.9610    -0.0070    -1.2760 ca         1 15R      -0.132600
      8 CAJ          1.3200     0.3040    -2.4730 ca         1 15R      -0.033000
      9 CAH          2.0500     0.3170    -3.6450 ca         1 15R      -0.108000
     10 CAI          3.3990     0.0310    -3.6260 ca         1 15R      -0.084000
     11 CBF          4.0500    -0.2770    -2.4370 ca         1 15R      -0.087300
     12 CAP          5.5220    -0.5570    -2.5050 c3         1 15R       0.023900
     13 CAS          6.1180    -1.0280    -1.1900 c3         1 15R       0.031000
     14 NBQ          5.4000    -0.4390    -0.0550 n          1 15R      -0.139800
     15 CBC          6.0400     0.3110     0.8630 c          1 15R       0.601100
     16 OAC          5.4130     0.8330     1.7630 o          1 15R      -0.648100
     17 CBN          7.5320     0.5020     0.7750 c3         1 15R      -0.129700
     18 CAR          8.2320    -0.8380     1.0130 c3         1 15R      -0.038900
     19 CAU          9.7470    -0.6460     0.8880 c3         1 15R       0.042500
     20 CAQ          7.9800     1.5100     1.8350 c3         1 15R      -0.038900
     21 CAT          9.4920     1.7270     1.7190 c3         1 15R       0.042500
     22 NBP         10.1660     0.4240     1.8030 n          1 15R      -0.151800
     23 CBB         11.1480     0.2150     2.7010 c          1 15R       0.615700
     24 OAB         11.4210     1.0750     3.5160 o          1 15R      -0.621100
     25 CBH         11.8930    -1.0600     2.6960 ca         1 15R      -0.177600
     26 CAO         12.4840    -1.5240     1.5180 ca         1 15R      -0.049000
     27 CBE         12.0180    -1.8060     3.8720 ca         1 15R       0.162900
     28 FAE         11.4550    -1.3640     5.0180 f          1 15R      -0.114900
     29 CAL         12.7180    -2.9990     3.8590 ca         1 15R      -0.138000
     30 CAK         13.2940    -3.4520     2.6860 ca         1 15R      -0.044000
     31 CBD         13.1780    -2.7140     1.5200 ca         1 15R      -0.103300
     32 CAW         13.8140    -3.2160     0.2490 c3         1 15R       0.019600
     33 CBI         15.2210    -2.6840     0.1480 cc         1 15R       0.386900
     34 NAX         15.6950    -1.9190     1.0860 nd         1 15R      -0.517300
     35 NAZ         16.9890    -1.3970     1.0500 ns         1 15R       0.097100
     36 CBK         17.8320    -1.6600     0.0300 c          1 15R       0.598100
     37 OAD         18.9580    -1.1940     0.0200 o          1 15R      -0.669500
     38 CBM         17.3680    -2.5170    -1.0660 ca         1 15R      -0.141600
     39 CBL         16.0550    -3.0360    -1.0000 ca         1 15R      -0.138900
     40 CAM         15.5860    -3.8600    -2.0270 ca         1 15R      -0.097000
     41 CAF         16.4040    -4.1590    -3.0800 ca         1 15R      -0.074000
     42 CAG         17.6970    -3.6560    -3.1460 ca         1 15R      -0.103000
     43 CAN         18.1830    -2.8320    -2.1540 ca         1 15R      -0.027000
     44 H1           3.7340    -0.2380     2.1220 h1         1 15R       0.060200
     45 H2           3.7930    -1.7540     0.2320 h1         1 15R       0.036700
     46 H3           0.2600     0.5280    -2.4850 ha         1 15R       0.129000
     47 H4           1.5610     0.5540    -4.5830 ha         1 15R       0.108000
     48 H5           3.9600     0.0450    -4.5530 ha         1 15R       0.104000
     49 H6           5.6920    -1.3210    -3.2530 hc         1 15R       0.026200
     50 H7           6.0310     0.3510    -2.8070 hc         1 15R       0.026200
     51 H8           6.0470    -2.1080    -1.1350 h1         1 15R       0.031700
     52 H9           7.1590    -0.7310    -1.1450 h1         1 15R       0.031700
     53 H10          7.7950     0.8740    -0.2080 hc         1 15R       0.042700
     54 H11          7.8970    -1.5560     0.2750 hc         1 15R       0.037200
     55 H12          7.9940    -1.1960     2.0080 hc         1 15R       0.037200
     56 H13         10.2510    -1.5680     1.1540 h1         1 15R       0.032950
     57 H14          9.9940    -0.3710    -0.1300 h1         1 15R       0.032950
     58 H15          7.7460     1.1250     2.8200 hc         1 15R       0.037200
     59 H16          7.4670     2.4510     1.6770 hc         1 15R       0.037200
     60 H17          9.8300     2.3620     2.5300 h1         1 15R       0.032950
     61 H18          9.7200     2.1920     0.7670 h1         1 15R       0.032950
     62 H19         12.3950    -0.9490     0.6040 ha         1 15R       0.113000
     63 H20         12.8140    -3.5800     4.7680 ha         1 15R       0.124000
     64 H21         13.8410    -4.3870     2.6800 ha         1 15R       0.109000
     65 H22         13.2370    -2.8740    -0.6020 hc         1 15R       0.029700
     66 H23         13.8360    -4.2990     0.2600 hc         1 15R       0.029700
     67 H24         17.2990    -0.8140     1.8010 hn         1 15R       0.208500
     68 H25         14.5800    -4.2580    -1.9890 ha         1 15R       0.112000
     69 H26         16.0410    -4.8050    -3.8710 ha         1 15R       0.105000
     70 H27         18.3270    -3.9070    -3.9910 ha         1 15R       0.110000
     71 H28         19.1920    -2.4440    -2.2110 ha         1 15R       0.131000
     72 H29          1.3960    -0.0840     2.0290 hn         1 15R       0.189500
     73 H30          3.6240     1.1630     1.0450 h1         1 15R       0.060200
@<TRIPOS>BOND
     1     1     2 2   
     2     2     3 1   
     3     2     7 1   
     4     3     4 1   
     5     3    72 1   
     6     4     5 1   
     7     4    44 1   
     8     4    73 1   
     9     5     6 1   
    10     5    14 1   
    11     5    45 1   
    12     6     7 ar  
    13     6    11 ar  
    14     7     8 ar  
    15     8     9 ar  
    16     8    46 1   
    17     9    10 ar  
    18     9    47 1   
    19    10    11 ar  
    20    10    48 1   
    21    11    12 1   
    22    12    13 1   
    23    12    49 1   
    24    12    50 1   
    25    13    14 1   
    26    13    51 1   
    27    13    52 1   
    28    14    15 1   
    29    15    16 2   
    30    15    17 1   
    31    17    18 1   
    32    17    20 1   
    33    17    53 1   
    34    18    19 1   
    35    18    54 1   
    36    18    55 1   
    37    19    22 1   
    38    19    56 1   
    39    19    57 1   
    40    20    21 1   
    41    20    58 1   
    42    20    59 1   
    43    21    22 1   
    44    21    60 1   
    45    21    61 1   
    46    22    23 1   
    47    23    24 2   
    48    23    25 1   
    49    25    26 ar  
    50    25    27 ar  
    51    26    31 ar  
    52    26    62 1   
    53    27    28 1   
    54    27    29 ar  
    55    29    30 ar  
    56    29    63 1   
    57    30    31 ar  
    58    30    64 1   
    59    31    32 1   
    60    32    33 1   
    61    32    65 1   
    62    32    66 1   
    63    33    34 2   
    64    33    39 1   
    65    34    35 1   
    66    35    36 1   
    67    35    67 1   
    68    36    37 2   
    69    36    38 1   
    70    38    39 ar  
    71    38    43 ar  
    72    39    40 ar  
    73    40    41 ar  
    74    40    68 1   
    75    41    42 ar  
    76    41    69 1   
    77    42    43 ar  
    78    42    70 1   
    79    43    71 1   
@<TRIPOS>SUBSTRUCTURE
     1 15R         1 TEMP              0 ****  ****    0 ROOT
