@<TRIPOS>MOLECULE
15R
   73    79     1     0     0
SMALL
bcc


@<TRIPOS>ATOM
      1 OAA          0.8850    -1.0240    -1.0490 o          1 15R      -0.636500
      2 CBA          2.0000    -0.5020    -0.8540 c          1 15R       0.709100
      3 NAY          2.4310    -0.2740     0.4410 ns         1 15R      -0.575900
      4 CAV          3.6200     0.4710     0.7280 c3         1 15R       0.101000
      5 CBO          4.7710     0.1720    -0.2680 c3         1 15R       0.116000
      6 CBJ          4.2530     0.2360    -1.6890 ca         1 15R      -0.083300
      7 CBG          2.9230    -0.1260    -1.9560 ca         1 15R      -0.130600
      8 CAJ          2.4420    -0.1420    -3.2680 ca         1 15R      -0.075000
      9 CAH          3.2890     0.2060    -4.3200 ca         1 15R      -0.135000
     10 CAI          4.6080     0.5670    -4.0620 ca         1 15R      -0.105000
     11 CBF          5.1000     0.5810    -2.7510 ca         1 15R      -0.071300
     12 CAP          6.5080     0.9920    -2.5060 c3         1 15R      -0.071100
     13 CAS          6.9710     0.6640    -1.0880 c3         1 15R       0.058000
     14 NBQ          5.9950     0.9390    -0.0370 n          1 15R      -0.430800
     15 CBC          5.9270     2.3160     0.3440 c          1 15R       0.641100
     16 OAC          6.3280     3.2120    -0.4180 o          1 15R      -0.564100
     17 CBN          5.5560     2.6560     1.7840 c3         1 15R      -0.119700
     18 CAR          4.6250     3.8600     1.8030 c3         1 15R      -0.093900
     19 CAU          4.2560     4.2420     3.2350 c3         1 15R       0.091500
     20 CAQ          6.8400     2.9410     2.5610 c3         1 15R      -0.093900
     21 CAT          6.6830     4.1100     3.5400 c3         1 15R       0.091500
     22 NBP          5.3820     4.2080     4.1500 n          1 15R      -0.460800
     23 CBB          5.1390     3.9700     5.4950 c          1 15R       0.674700
     24 OAB          3.9680     3.9400     5.9250 o          1 15R      -0.590100
     25 CBH          6.2940     3.8330     6.4320 ca         1 15R      -0.162600
     26 CAO          6.5720     4.8840     7.3080 ca         1 15R      -0.058000
     27 CBE          7.0540     2.6490     6.5060 ca         1 15R       0.148900
     28 FAE          6.8060     1.6130     5.6700 f          1 15R      -0.136900
     29 CAL          8.0850     2.5360     7.4590 ca         1 15R      -0.168000
     30 CAK          8.3490     3.5960     8.3190 ca         1 15R      -0.077000
     31 CBD          7.5980     4.7750     8.2510 ca         1 15R      -0.087300
     32 CAW          7.8700     5.8940     9.1940 c3         1 15R      -0.052400
     33 CBI          8.9860     6.8130     8.7870 cc         1 15R       0.346900
     34 NAX          9.6600     6.5990     7.6660 nd         1 15R      -0.420300
     35 NAZ         10.6390     7.4130     7.3190 ns         1 15R      -0.301900
     36 CBK         11.0660     8.5470     8.0470 c          1 15R       0.686100
     37 OAD         12.0040     9.2310     7.6030 o          1 15R      -0.613500
     38 CBM         10.3320     8.8080     9.3010 ca         1 15R      -0.141600
     39 CBL          9.2840     7.9390     9.6780 ca         1 15R      -0.106900
     40 CAM          8.5890     8.1910    10.8700 ca         1 15R      -0.129000
     41 CAF          8.9330     9.2820    11.6600 ca         1 15R      -0.097000
     42 CAG          9.9720    10.1390    11.2800 ca         1 15R      -0.136000
     43 CAN         10.6720     9.9050    10.1020 ca         1 15R      -0.067000
     44 H1           3.3920     1.5780     0.7090 h1         1 15R       0.049700
     45 H2           5.0830    -0.9100    -0.0980 h1         1 15R       0.084700
     46 H3           1.3960    -0.4370    -3.4540 ha         1 15R       0.162000
     47 H4           2.9120     0.1940    -5.3540 ha         1 15R       0.140000
     48 H5           5.2770     0.8440    -4.8920 ha         1 15R       0.137000
     49 H6           6.5910     2.1030    -2.6720 hc         1 15R       0.071200
     50 H7           7.1920     0.4850    -3.2360 hc         1 15R       0.071200
     51 H8           7.9040     1.2530    -0.8650 h1         1 15R       0.063700
     52 H9           7.2200    -0.4320    -1.0180 h1         1 15R       0.063700
     53 H10          5.0370     1.7940     2.2850 hc         1 15R       0.073700
     54 H11          5.1250     4.7200     1.2840 hc         1 15R       0.063950
     55 H12          3.6810     3.6320     1.2450 hc         1 15R       0.063950
     56 H13          3.8310     5.2870     3.2380 h1         1 15R       0.059450
     57 H14          3.4510     3.5480     3.6170 h1         1 15R       0.059450
     58 H15          7.6770     3.1980     1.8600 hc         1 15R       0.063950
     59 H16          7.1360     2.0170     3.1250 hc         1 15R       0.063950
     60 H17          7.4760     4.0200     4.3350 h1         1 15R       0.059450
     61 H18          6.8630     5.0740     2.9790 h1         1 15R       0.059450
     62 H19          5.9640     5.8020     7.2540 ha         1 15R       0.153000
     63 H20          8.6710     1.6070     7.5130 ha         1 15R       0.154000
     64 H21          9.1590     3.5050     9.0590 ha         1 15R       0.143000
     65 H22          8.1300     5.4720    10.2050 hc         1 15R       0.067700
     66 H23          6.9410     6.5200     9.3120 hc         1 15R       0.067700
     67 H24         11.0930     7.1820     6.4550 hn         1 15R       0.360500
     68 H25          7.7700     7.5270    11.1830 ha         1 15R       0.142000
     69 H26          8.3830     9.4740    12.5940 ha         1 15R       0.141000
     70 H27         10.2330    10.9990    11.9150 ha         1 15R       0.144000
     71 H28         11.4940    10.5680     9.7840 ha         1 15R       0.163000
     72 H29          1.8110    -0.4690     1.1920 hn         1 15R       0.329500
     73 H30          3.9600     0.1900     1.7660 h1         1 15R       0.049700
@<TRIPOS>BOND
     1     1     2 2   
     2     2     3 1   
     3     2     7 1   
     4     3     4 1   
     5     3    72 1   
     6     4     5 1   
     7     4    44 1   
     8     4    73 1   
     9     5     6 1   
    10     5    14 1   
    11     5    45 1   
    12     6     7 ar  
    13     6    11 ar  
    14     7     8 ar  
    15     8     9 ar  
    16     8    46 1   
    17     9    10 ar  
    18     9    47 1   
    19    10    11 ar  
    20    10    48 1   
    21    11    12 1   
    22    12    13 1   
    23    12    49 1   
    24    12    50 1   
    25    13    14 1   
    26    13    51 1   
    27    13    52 1   
    28    14    15 1   
    29    15    16 2   
    30    15    17 1   
    31    17    18 1   
    32    17    20 1   
    33    17    53 1   
    34    18    19 1   
    35    18    54 1   
    36    18    55 1   
    37    19    22 1   
    38    19    56 1   
    39    19    57 1   
    40    20    21 1   
    41    20    58 1   
    42    20    59 1   
    43    21    22 1   
    44    21    60 1   
    45    21    61 1   
    46    22    23 1   
    47    23    24 2   
    48    23    25 1   
    49    25    26 ar  
    50    25    27 ar  
    51    26    31 ar  
    52    26    62 1   
    53    27    28 1   
    54    27    29 ar  
    55    29    30 ar  
    56    29    63 1   
    57    30    31 ar  
    58    30    64 1   
    59    31    32 1   
    60    32    33 1   
    61    32    65 1   
    62    32    66 1   
    63    33    34 2   
    64    33    39 1   
    65    34    35 1   
    66    35    36 1   
    67    35    67 1   
    68    36    37 2   
    69    36    38 1   
    70    38    39 ar  
    71    38    43 ar  
    72    39    40 ar  
    73    40    41 ar  
    74    40    68 1   
    75    41    42 ar  
    76    41    69 1   
    77    42    43 ar  
    78    42    70 1   
    79    43    71 1   
@<TRIPOS>SUBSTRUCTURE
     1 15R         1 TEMP              0 ****  ****    0 ROOT
