@<TRIPOS>MOLECULE
15S
   65    69     1     0     0
SMALL
bcc


@<TRIPOS>ATOM
      1 OAC          1.2900     1.3290    -0.2660 o          1 15S      -0.604500
      2 CAX          2.1810     0.4760    -0.1070 c          1 15S       0.708100
      3 NAU          3.4520     0.8760     0.2800 ns         1 15S      -0.580900
      4 CAS          4.5420    -0.0450     0.3590 c3         1 15S       0.104000
      5 CBG          4.0880    -1.4300     0.9240 c3         1 15S       0.218800
      6 CBE          2.9090    -1.9200     0.1230 ca         1 15S      -0.079300
      7 CBD          1.9550    -0.9820    -0.3030 ca         1 15S      -0.127600
      8 CAI          0.7860    -1.4080    -0.9380 ca         1 15S      -0.060000
      9 CAG          0.5770    -2.7690    -1.1670 ca         1 15S      -0.121000
     10 CAH          1.5400    -3.6990    -0.7860 ca         1 15S      -0.092000
     11 CBC          2.7120    -3.2790    -0.1460 ca         1 15S      -0.092300
     12 CAP          3.7780    -4.2470     0.2170 c3         1 15S      -0.062100
     13 CAR          5.1330    -3.5400     0.1760 c3         1 15S       0.172800
     14 NBI          5.2340    -2.3470     1.0040 n3         1 15S      -0.788600
     15 CAT          5.7170    -2.5840     2.3380 c3         1 15S       0.120800
     16 CAW          7.1850    -2.1940     2.5400 c          1 15S       0.532100
     17 OAB          7.8690    -2.5260     3.4970 o          1 15S      -0.431100
     18 N            7.8300    -1.3280     1.4870 ny         1 15S      -0.668800
     19 CA           8.9970    -0.5030     1.9630 c3         1 15S       0.046500
     20 CB          10.0550    -0.3700     0.8760 c3         1 15S      -0.131100
     21 C            8.4950     0.9130     2.3620 c          1 15S       0.645100
     22 O            7.3800     1.2760     1.9130 o          1 15S      -0.637100
     23 NBH          9.2830     1.7310     3.1150 n          1 15S      -0.418800
     24 CAQ          8.7780     3.0510     3.4910 c3         1 15S       0.114200
     25 CAO          9.0960     3.4590     4.8890 c2         1 15S      -0.194200
     26 CAN         10.5190     1.3390     3.7610 c3         1 15S       0.080000
     27 CAF         10.4730     1.4550     5.2880 c3         1 15S      -0.065200
     28 CAY          9.8760     2.7510     5.7230 ce         1 15S      -0.035400
     29 CBB         10.1770     3.1910     7.0830 ca         1 15S      -0.090800
     30 CAL         10.3320     4.5560     7.3670 ca         1 15S      -0.089500
     31 CAJ         10.6150     4.9880     8.6580 ca         1 15S      -0.163000
     32 CBA         10.7450     4.0430     9.6930 ca         1 15S       0.147900
     33 FAE         11.0190     4.4520    10.9520 f          1 15S      -0.125900
     34 CAK         10.5930     2.6700     9.4180 ca         1 15S      -0.163000
     35 CAM         10.3140     2.2580     8.1210 ca         1 15S      -0.089500
     36 H3           3.6500     1.8470     0.3450 hn         1 15S       0.339500
     37 H5           5.3270     0.4000     1.0380 h1         1 15S       0.043700
     38 H6           5.0030    -0.2030    -0.6600 h1         1 15S       0.043700
     39 H7           3.6800    -1.2440     1.9700 h1         1 15S       0.073700
     40 H8           0.0380    -0.6580    -1.2500 ha         1 15S       0.175000
     41 H9          -0.3500    -3.1040    -1.6590 ha         1 15S       0.156000
     42 H10          1.3850    -4.7710    -0.9890 ha         1 15S       0.147000
     43 H11          3.7980    -5.1040    -0.5070 hc         1 15S       0.071700
     44 H12          3.5830    -4.6720     1.2380 hc         1 15S       0.071700
     45 H13          5.3280    -3.2010    -0.8830 h1         1 15S       0.062700
     46 H14          5.9410    -4.2670     0.4670 h1         1 15S       0.062700
     47 H16          5.6630    -3.6740     2.6400 h1         1 15S       0.116700
     48 H17          5.1610    -1.9850     3.1230 h1         1 15S       0.116700
     49 H18          8.1350    -1.9350     0.7190 hn         1 15S       0.480300
     50 H19          9.4300    -1.0360     2.8640 hx         1 15S       0.134700
     51 H20         10.4600    -1.3690     0.5820 hc         1 15S       0.083033
     52 H21          9.6480     0.1450    -0.0300 hc         1 15S       0.083033
     53 H22         10.9030     0.2450     1.2720 hc         1 15S       0.083033
     54 H23          7.6560     3.0730     3.3470 h1         1 15S       0.086700
     55 H24          9.2330     3.8020     2.7780 h1         1 15S       0.086700
     56 H25          8.6330     4.4130     5.1890 ha         1 15S       0.159000
     57 H27         11.3260     2.0280     3.3700 h1         1 15S       0.061700
     58 H28         10.8050     0.2870     3.4880 h1         1 15S       0.061700
     59 H29         11.5230     1.3620     5.6740 hc         1 15S       0.073700
     60 H30          9.8740     0.6090     5.7220 hc         1 15S       0.073700
     61 H32         10.2380     5.2990     6.5600 ha         1 15S       0.136500
     62 H33         10.7400     6.0590     8.8790 ha         1 15S       0.159000
     63 H34         10.6950     1.9380    10.2330 ha         1 15S       0.159000
     64 H35         10.1930     1.1840     7.9140 ha         1 15S       0.136500
     65 H2           7.1060    -0.6760     1.1150 hn         1 15S       0.480300
@<TRIPOS>BOND
     1     1     2 2   
     2     2     3 1   
     3     2     7 1   
     4     3     4 1   
     5     3    36 1   
     6     4     5 1   
     7     4    37 1   
     8     4    38 1   
     9     5     6 1   
    10     5    14 1   
    11     5    39 1   
    12     6     7 ar  
    13     6    11 ar  
    14     7     8 ar  
    15     8     9 ar  
    16     8    40 1   
    17     9    10 ar  
    18     9    41 1   
    19    10    11 ar  
    20    10    42 1   
    21    11    12 1   
    22    12    13 1   
    23    12    43 1   
    24    12    44 1   
    25    13    14 1   
    26    13    45 1   
    27    13    46 1   
    28    14    15 1   
    29    15    16 1   
    30    15    47 1   
    31    15    48 1   
    32    16    17 2   
    33    16    18 1   
    34    18    19 1   
    35    18    49 1   
    36    18    65 1   
    37    19    20 1   
    38    19    21 1   
    39    19    50 1   
    40    20    51 1   
    41    20    52 1   
    42    20    53 1   
    43    21    22 2   
    44    21    23 1   
    45    23    24 1   
    46    23    26 1   
    47    24    25 1   
    48    24    54 1   
    49    24    55 1   
    50    25    28 2   
    51    25    56 1   
    52    26    27 1   
    53    26    57 1   
    54    26    58 1   
    55    27    28 1   
    56    27    59 1   
    57    27    60 1   
    58    28    29 1   
    59    29    30 ar  
    60    29    35 ar  
    61    30    31 ar  
    62    30    61 1   
    63    31    32 ar  
    64    31    62 1   
    65    32    33 1   
    66    32    34 ar  
    67    34    35 ar  
    68    34    63 1   
    69    35    64 1   
@<TRIPOS>SUBSTRUCTURE
     1 15S         1 TEMP              0 ****  ****    0 ROOT
