@<TRIPOS>MOLECULE
15S
   64    68     1     0     0
SMALL
bcc


@<TRIPOS>ATOM
      1 OAC          0.0000     0.0000     0.0000 o          1 15S      -0.682500
      2 CAX          1.2160     0.0000     0.0000 c          1 15S       0.643100
      3 NAU          1.8950     0.0000     1.1630 ns         1 15S      -0.191900
      4 CAS          3.3480     0.1570     1.1760 c3         1 15S       0.038000
      5 CBG          3.9890    -0.6390     0.0430 c3         1 15S       0.171800
      6 CBE          3.3260    -0.3020    -1.2680 ca         1 15S      -0.053300
      7 CBD          1.9610    -0.0070    -1.2760 ca         1 15S      -0.146600
      8 CAI          1.3190     0.2880    -2.4760 ca         1 15S      -0.039000
      9 CAG          2.0440     0.2930    -3.6500 ca         1 15S      -0.113000
     10 CAH          3.3950     0.0050    -3.6330 ca         1 15S      -0.083000
     11 CBC          4.0430    -0.2900    -2.4430 ca         1 15S      -0.070300
     12 CAP          5.5080    -0.6160    -2.4890 c3         1 15S       0.040900
     13 CAR          6.0500    -1.0530    -1.1390 c3         1 15S       0.133800
     14 NBI          5.4170    -0.3070    -0.0480 n3         1 15S      -0.490600
     15 CAT          6.0990    -0.5590     1.2280 c3         1 15S       0.069800
     16 CAW          7.4900     0.0180     1.1780 c          1 15S       0.569100
     17 OAB          7.8760     0.5840     0.1770 o          1 15S      -0.638100
     18 N            8.3070    -0.0950     2.2440 ns         1 15S      -0.177900
     19 CA           9.6580     0.4650     2.1940 c3         1 15S      -0.055300
     20 CB           9.6110     1.9480     2.5720 c3         1 15S      -0.019100
     21 C           10.5450    -0.2720     3.1650 c          1 15S       0.588100
     22 O           10.0900    -1.1770     3.8330 o          1 15S      -0.657100
     23 NBH         11.8410     0.0740     3.2920 n          1 15S      -0.143800
     24 CAQ         12.4220     1.1650     2.4980 c3         1 15S       0.086200
     25 CAO         13.7700     0.7400     1.9860 c2         1 15S      -0.175200
     26 CAN         12.7310    -0.6240     4.2360 c3         1 15S       0.051000
     27 CAF         13.8450    -1.2930     3.4270 c3         1 15S       0.016800
     28 CAY         14.3930    -0.3370     2.4010 ce         1 15S      -0.058400
     29 CBB         15.7230    -0.6280     1.8260 ca         1 15S      -0.072800
     30 CAL         16.7930     0.2350     2.0650 ca         1 15S      -0.064500
     31 CAJ         18.0330    -0.0410     1.5270 ca         1 15S      -0.131000
     32 CBA         18.2160    -1.1730     0.7500 ca         1 15S       0.106900
     33 FAE         19.4320    -1.4400     0.2240 f          1 15S      -0.127900
     34 CAK         17.1570    -2.0340     0.5090 ca         1 15S      -0.131000
     35 CAM         15.9150    -1.7690     1.0470 ca         1 15S      -0.064500
     36 H3           1.4010    -0.1080     2.0260 hn         1 15S       0.184500
     37 H5           3.7350    -0.1990     2.1240 h1         1 15S       0.026200
     38 H6           3.5930     1.2060     1.0570 h1         1 15S       0.026200
     39 H7           3.8780    -1.6990     0.2400 h1         1 15S       0.020700
     40 H8           0.2600     0.5140    -2.4880 ha         1 15S       0.125000
     41 H9           1.5510     0.5140    -4.5890 ha         1 15S       0.106000
     42 H10          3.9560     0.0110    -4.5600 ha         1 15S       0.104000
     43 H11          6.0500     0.2630    -2.8150 hc         1 15S       0.027200
     44 H12          5.6650    -1.4150    -3.2030 hc         1 15S       0.027200
     45 H13          7.1190    -0.8790    -1.1130 h1         1 15S       0.024700
     46 H14          5.8540    -2.1100    -1.0040 h1         1 15S       0.024700
     47 H16          5.5430    -0.0920     2.0330 h1         1 15S       0.027700
     48 H17          6.1570    -1.6270     1.4010 h1         1 15S       0.027700
     49 H18          7.9890    -0.5630     3.0700 hn         1 15S       0.196500
     50 H19         10.0560     0.3610     1.1920 h1         1 15S       0.069700
     51 H20          8.5800     2.2540     2.7040 hc         1 15S       0.017700
     52 H21         10.0640     2.5360     1.7840 hc         1 15S       0.017700
     53 H22         10.1550     2.1020     3.4960 hc         1 15S       0.017700
     54 H23         11.7710     1.3880     1.6600 h1         1 15S       0.036700
     55 H24         12.5330     2.0450     3.1200 h1         1 15S       0.036700
     56 H25         14.2510     1.3550     1.2350 ha         1 15S       0.118000
     57 H27         12.1720    -1.3760     4.7780 h1         1 15S       0.039200
     58 H28         13.1610     0.0900     4.9280 h1         1 15S       0.039200
     59 H29         13.4460    -2.1650     2.9240 hc         1 15S       0.032200
     60 H30         14.6420    -1.5920     4.0970 hc         1 15S       0.032200
     61 H32         16.6500     1.1210     2.6730 ha         1 15S       0.111500
     62 H33         18.8640     0.6290     1.7120 ha         1 15S       0.120500
     63 H34         17.3060    -2.9190    -0.0980 ha         1 15S       0.120500
     64 H35         15.0870    -2.4430     0.8580 ha         1 15S       0.111500
@<TRIPOS>BOND
     1     1     2 2   
     2     2     3 1   
     3     2     7 1   
     4     3     4 1   
     5     3    36 1   
     6     4     5 1   
     7     4    37 1   
     8     4    38 1   
     9     5     6 1   
    10     5    14 1   
    11     5    39 1   
    12     6     7 ar  
    13     6    11 ar  
    14     7     8 ar  
    15     8     9 ar  
    16     8    40 1   
    17     9    10 ar  
    18     9    41 1   
    19    10    11 ar  
    20    10    42 1   
    21    11    12 1   
    22    12    13 1   
    23    12    43 1   
    24    12    44 1   
    25    13    14 1   
    26    13    45 1   
    27    13    46 1   
    28    14    15 1   
    29    15    16 1   
    30    15    47 1   
    31    15    48 1   
    32    16    17 2   
    33    16    18 1   
    34    18    19 1   
    35    18    49 1   
    36    19    20 1   
    37    19    21 1   
    38    19    50 1   
    39    20    51 1   
    40    20    52 1   
    41    20    53 1   
    42    21    22 2   
    43    21    23 1   
    44    23    24 1   
    45    23    26 1   
    46    24    25 1   
    47    24    54 1   
    48    24    55 1   
    49    25    28 2   
    50    25    56 1   
    51    26    27 1   
    52    26    57 1   
    53    26    58 1   
    54    27    28 1   
    55    27    59 1   
    56    27    60 1   
    57    28    29 1   
    58    29    30 ar  
    59    29    35 ar  
    60    30    31 ar  
    61    30    61 1   
    62    31    32 ar  
    63    31    62 1   
    64    32    33 1   
    65    32    34 ar  
    66    34    35 ar  
    67    34    63 1   
    68    35    64 1   
@<TRIPOS>SUBSTRUCTURE
     1 15S         1 TEMP              0 ****  ****    0 ROOT
