@<TRIPOS>MOLECULE
15T
   48    51     1     0     0
SMALL
bcc


@<TRIPOS>ATOM
      1 C1          -0.0260     0.0900     0.0910 c3         1 15T      -0.118100
      2 C2           1.4730     0.1160    -0.1430 c3         1 15T       0.137800
      3 O4           2.1780     0.3760     1.0600 oh         1 15T      -0.601800
      4 C5           1.9700    -1.1630    -0.7790 cc         1 15T       0.343800
      5 N6           3.3250    -1.3350    -1.1900 na         1 15T      -0.129300
      6 C7           3.4010    -2.6090    -1.7520 ca         1 15T       0.001800
      7 C8           2.0630    -3.1690    -1.6550 ca         1 15T      -0.092900
      8 N9           1.2090    -2.2440    -1.0460 nd         1 15T      -0.537100
      9 C10          1.7970    -4.4780    -2.1480 ca         1 15T       0.484200
     10 N11          2.7190    -5.2450    -2.7110 nb         1 15T      -0.684000
     11 C12          3.9860    -4.7070    -2.8050 ca         1 15T       0.417800
     12 C13          4.4050    -3.3890    -2.3460 ca         1 15T      -0.188100
     13 C14          5.8020    -3.2720    -2.6620 cc         1 15T      -0.179200
     14 C15          6.1900    -4.4630    -3.2760 cd         1 15T      -0.122100
     15 N16          5.1070    -5.3350    -3.3660 na         1 15T      -0.270100
     16 C18          4.3860    -0.3710    -0.9920 c3         1 15T       0.053000
     17 C20          5.5120    -0.9020    -0.0880 c3         1 15T      -0.093400
     18 C21          6.5660     0.1600     0.1320 c3         1 15T      -0.075400
     19 C22          7.1420     0.6550    -1.1880 c3         1 15T      -0.068700
     20 C24          6.0220     1.2010    -2.0590 c3         1 15T      -0.075400
     21 C25          4.9630     0.1520    -2.3190 c3         1 15T      -0.093400
     22 C26          8.2110     1.7040    -0.9240 c3         1 15T      -0.073400
     23 C27          9.0840     1.9940    -2.1340 c3         1 15T      -0.022300
     24 C28          8.5500     3.0400    -2.9780 c1         1 15T       0.209700
     25 N29          8.1400     3.8890    -3.6600 n1         1 15T      -0.375800
     26 H1          -0.5660    -0.0390    -0.8760 hc         1 15T       0.055700
     27 H2          -0.3090    -0.7470     0.7730 hc         1 15T       0.055700
     28 H3          -0.3370     1.0550     0.5600 hc         1 15T       0.055700
     29 H4           1.7440     0.9860    -0.8120 h1         1 15T       0.083700
     30 H5           1.9120    -0.2920     1.7040 ho         1 15T       0.412000
     31 H6           0.7800    -4.9040    -2.0730 h4         1 15T       0.037100
     32 H8           6.4480    -2.4210    -2.4670 ha         1 15T       0.156000
     33 H9           7.1690    -4.7570    -3.6590 h4         1 15T       0.168000
     34 H10          3.9210     0.5130    -0.4510 h1         1 15T       0.087700
     35 H11          5.0810    -1.2030     0.9030 hc         1 15T       0.057700
     36 H12          5.9750    -1.8150    -0.5450 hc         1 15T       0.057700
     37 H13          6.1230     1.0260     0.6920 hc         1 15T       0.049200
     38 H14          7.3870    -0.2670     0.7650 hc         1 15T       0.049200
     39 H15          7.6130    -0.2200    -1.7180 hc         1 15T       0.048700
     40 H16          5.5590     2.0920    -1.5590 hc         1 15T       0.049200
     41 H17          6.4450     1.5470    -3.0390 hc         1 15T       0.049200
     42 H18          5.3980    -0.6950    -2.9110 hc         1 15T       0.057700
     43 H19          4.1410     0.6040    -2.9350 hc         1 15T       0.057700
     44 H20          8.8790     1.3330    -0.1000 hc         1 15T       0.054700
     45 H21          7.7300     2.6500    -0.5610 hc         1 15T       0.054700
     46 H22          9.2170     1.0620    -2.7510 hc         1 15T       0.074200
     47 H23         10.1050     2.3170    -1.7850 hc         1 15T       0.074200
     48 H7           5.1130    -6.2380    -3.7610 hn         1 15T       0.309700
@<TRIPOS>BOND
     1     1     2 1   
     2     1    26 1   
     3     1    27 1   
     4     1    28 1   
     5     2     3 1   
     6     2     4 1   
     7     2    29 1   
     8     3    30 1   
     9     4     5 1   
    10     4     8 2   
    11     5     6 1   
    12     5    16 1   
    13     6     7 ar  
    14     6    12 ar  
    15     7     8 1   
    16     7     9 ar  
    17     9    10 ar  
    18     9    31 1   
    19    10    11 ar  
    20    11    12 ar  
    21    11    15 1   
    22    12    13 1   
    23    13    14 2   
    24    13    32 1   
    25    14    15 1   
    26    14    33 1   
    27    15    48 1   
    28    16    17 1   
    29    16    21 1   
    30    16    34 1   
    31    17    18 1   
    32    17    35 1   
    33    17    36 1   
    34    18    19 1   
    35    18    37 1   
    36    18    38 1   
    37    19    20 1   
    38    19    22 1   
    39    19    39 1   
    40    20    21 1   
    41    20    40 1   
    42    20    41 1   
    43    21    42 1   
    44    21    43 1   
    45    22    23 1   
    46    22    44 1   
    47    22    45 1   
    48    23    24 1   
    49    23    46 1   
    50    23    47 1   
    51    24    25 3   
@<TRIPOS>SUBSTRUCTURE
     1 15T         1 TEMP              0 ****  ****    0 ROOT
