@<TRIPOS>MOLECULE
molecule
   48    51     1     0     0
SMALL
bcc


@<TRIPOS>ATOM
      1 C1           0.0000     0.0000     0.0000 c3         1 15T      -0.162100
      2 C2           1.5300     0.0000     0.0000 c3         1 15T       0.229800
      3 O4           2.0060     0.0000     1.3470 oh         1 15T      -0.654800
      4 C5           2.0320    -1.2300    -0.7120 cc         1 15T       0.400800
      5 N6           2.5280    -1.2510    -1.9800 na         1 15T      -0.130300
      6 C7           2.8760    -2.5470    -2.2620 ca         1 15T      -0.039200
      7 C8           2.5700    -3.2950    -1.1140 ca         1 15T      -0.052900
      8 N9           2.0610    -2.4260    -0.2020 nd         1 15T      -0.554100
      9 C10          2.8240    -4.6710    -1.1160 ca         1 15T       0.510200
     10 N11          3.3410    -5.2640    -2.1660 nb         1 15T      -0.708000
     11 C12          3.6510    -4.6010    -3.2790 ca         1 15T       0.444800
     12 C13          3.4270    -3.2180    -3.3630 ca         1 15T      -0.262100
     13 C14          3.8700    -2.8100    -4.6960 cc         1 15T      -0.232200
     14 C15          4.3140    -3.9170    -5.3150 cd         1 15T      -0.088100
     15 N16          4.1890    -4.9950    -4.4820 na         1 15T      -0.253100
     16 C18          2.6640    -0.1010    -2.8770 c3         1 15T       0.008000
     17 C20          4.1350     0.0820    -3.2530 c3         1 15T      -0.125400
     18 C21          4.2770     1.2830    -4.1910 c3         1 15T      -0.086900
     19 C22          3.4530     1.0410    -5.4570 c3         1 15T      -0.024700
     20 C24          1.9820     0.8580    -5.0820 c3         1 15T      -0.086900
     21 C25          1.8400    -0.3430    -4.1440 c3         1 15T      -0.125400
     22 C26          3.5950     2.2420    -6.3950 c3         1 15T      -0.297400
     23 C27          2.8750     1.9480    -7.7130 c3         1 15T      -0.114300
     24 C28          3.0110     3.1020    -8.6140 c1         1 15T       0.197700
     25 N29          3.1360     3.9900    -9.3130 n1         1 15T      -0.306800
     26 H1          -0.2540    -0.8620     0.6050 hc         1 15T       0.049367
     27 H2          -0.5610     0.8190     0.4330 hc         1 15T       0.049367
     28 H3          -0.5610    -0.2110    -0.9020 hc         1 15T       0.049367
     29 H4           1.8900     0.8850    -0.5100 h1         1 15T       0.045700
     30 H5           1.5390     0.2710     2.1200 ho         1 15T       0.446000
     31 H6           2.0880    -5.3420    -0.6900 h4         1 15T       0.039100
     32 H8           3.2070    -1.9540    -4.7230 ha         1 15T       0.194000
     33 H9           4.8690    -4.0350    -6.2380 h4         1 15T       0.173000
     34 H10          2.3060     0.7940    -2.3820 h1         1 15T       0.067700
     35 H11          4.6910     0.5240    -2.4340 hc         1 15T       0.073700
     36 H12          4.2640    -0.9220    -3.6380 hc         1 15T       0.073700
     37 H13          4.1140     2.0610    -3.4550 hc         1 15T       0.058200
     38 H14          5.3500     1.2200    -4.0540 hc         1 15T       0.058200
     39 H15          3.8120     0.1460    -5.9530 hc         1 15T       0.048700
     40 H16          1.2670     0.3150    -5.6880 hc         1 15T       0.058200
     41 H17          1.4830     1.7920    -4.8550 hc         1 15T       0.058200
     42 H18          0.8510    -0.2600    -3.7100 hc         1 15T       0.073700
     43 H19          2.1620    -1.3210    -4.4800 hc         1 15T       0.073700
     44 H20          3.5300     2.0230    -7.4540 hc         1 15T       0.157700
     45 H21          2.6520     2.7430    -6.2110 hc         1 15T       0.157700
     46 H22          1.9460     1.4650    -7.4340 hc         1 15T       0.107700
     47 H23          3.7260     1.3390    -7.9920 hc         1 15T       0.107700
     48 H7           3.8720    -5.8220    -4.9490 hn         1 15T       0.293700
@<TRIPOS>BOND
     1     1     2 1
     2     8     4 2
     3     8     7 1
     4     2     4 1
     5     2     3 1
     6     9     7 ar
     7     9    10 ar
     8     4     5 1
     9     7     6 ar
    10    21    20 1
    11    21    16 1
    12    10    11 ar
    13    25    24 3
    14     5     6 1
    15     5    16 1
    16     6    12 ar
    17    20    19 1
    18    11    12 ar
    19    11    15 1
    20    16    17 1
    21    12    13 1
    22    15    14 1
    23    24    23 1
    24    13    14 2
    25    19    22 1
    26    19    18 1
    27    17    18 1
    28    23    22 1
    29     1    26 1
    30     1    27 1
    31     1    28 1
    32     2    29 1
    33     3    30 1
    34     9    31 1
    35    13    32 1
    36    14    33 1
    37    16    34 1
    38    17    35 1
    39    17    36 1
    40    18    37 1
    41    18    38 1
    42    19    39 1
    43    20    40 1
    44    20    41 1
    45    21    42 1
    46    21    43 1
    47    22    44 1
    48    22    45 1
    49    23    46 1
    50    23    47 1
    51    15    48 1
@<TRIPOS>SUBSTRUCTURE
     1 15T         1 TEMP              0 ****  ****    0 ROOT
