@<TRIPOS>MOLECULE
15V
   38    38     1     0     0
SMALL
bcc


@<TRIPOS>ATOM
      1 C4          0.7620   -0.0920    0.2540 c1        1 15V     -0.133000
      2 C14         9.9450    1.1740   -1.2270 c1        1 15V     -0.000000
      3 C5          3.3630    0.3280    1.4300 c2        1 15V     -0.346000
      4 C6          3.6240    0.1470    0.0620 c1        1 15V     -0.051000
      5 C11         8.4810    0.8890    0.7260 c2        1 15V      0.041000
      6 C7          4.5030    0.3020    2.3770 c2        1 15V      0.405000
      7 C8          8.5770   -0.1820    4.0930 c2        1 15V     -0.075000
      8 C9          7.1430   -0.2580    3.8860 c2        1 15V     -0.243000
      9 C10         6.9370    0.1710    2.5630 c2        1 15V      0.112000
     10 C13         9.6750    0.7220    0.0740 c2        1 15V     -0.236000
     11 N1          1.2940    0.9770    2.7420 n2        1 15V     -0.278000
     12 N2          1.4110   -0.2450   -0.8760 n3        1 15V     -0.138000
     13 C3          2.1270    0.5290    2.0070 c1        1 15V      0.394000
     14 N3          2.7950   -0.1080   -0.9280 n3        1 15V     -0.128000
     15 C16         8.0830   -0.2610   -2.0400 c2        1 15V     -0.408000
     16 C15         9.2160    0.6670   -2.3660 c3        1 15V     -0.146000
     17 C17         7.6360   -0.5490   -0.8180 c1        1 15V      0.142000
     18 N5          8.2380    0.5270    2.0580 na        1 15V     -0.127000
     19 N4          9.2020    0.2550    2.9700 n2        1 15V     -0.094000
     20 N6          5.7770    0.2670    1.8080 n         1 15V     -0.304000
     21 O1          4.3320    0.3190    3.6140 o         1 15V     -0.385000
     22 C2         -1.2720    0.0550    1.5130 c1        1 15V      0.266000
     23 C1         -0.6720   -0.2820    0.3870 c2        1 15V     -0.500000
     24 H1          0.9830   -0.5230   -1.7470 hn        1 15V      0.186000
     25 H2          8.8470    1.5420   -2.9780 hc        1 15V      0.159000
     26 H3          3.1530   -0.1290   -1.8640 hn        1 15V      0.269000
     27 H4          6.3830   -0.5590    4.5990 ha        1 15V      0.192000
     28 H5         10.2440   -1.0120    5.1790 hc        1 15V      0.091000
     29 H6          8.6100   -1.2240    5.9490 hc        1 15V      0.091000
     30 H7          9.4210    0.4020    5.9630 hc        1 15V      0.091000
     31 H8         10.5480    0.2600    0.5860 ha        1 15V      0.205000
     32 H9          9.9690    0.1260   -3.0170 hc        1 15V      0.159000
     33 H10         7.6680    1.5210    0.3050 h4        1 15V      0.163000
     34 H11         5.8490    0.1370    0.8150 hn        1 15V      0.275000
     35 H12         0.4370    0.7780    3.1730 hn        1 15V      0.308000
     36 H13        -1.2650   -0.7190   -0.4420 ha        1 15V      0.184000
     37 C12         9.2540   -0.5260    5.3590 c3        1 15V     -0.149000
     38 CL1         7.3410   -0.9950   -3.3900 cl        1 15V      0.009000
@<TRIPOS>BOND
     1    1   12 1   
     2    1   23 1   
     3    2   10 1   
     4    2   16 1   
     5    3    4 1   
     6    3    6 1   
     7    3   13 1   
     8    4   14 1   
     9    5   10 1   
    10    5   18 1   
    11    5   33 1   
    12    6   20 1   
    13    6   21 1   
    14    7    8 1   
    15    7   19 1   
    16    7   37 1   
    17    8    9 1   
    18    8   27 1   
    19    9   18 1   
    20    9   20 1   
    21   10   31 1   
    22   11   13 1   
    23   11   35 1   
    24   12   14 1   
    25   12   24 1   
    26   14   26 1   
    27   15   16 1   
    28   15   17 1   
    29   15   38 1   
    30   16   25 1   
    31   16   32 1   
    32   18   19 1   
    33   20   34 1   
    34   22   23 1   
    35   23   36 1   
    36   28   37 1   
    37   29   37 1   
    38   30   37 1   
@<TRIPOS>SUBSTRUCTURE
     1 15V         1 TEMP              0 ****  ****    0 ROOT
