@<TRIPOS>MOLECULE
15V
   38    41     1     0     0
SMALL
bcc


@<TRIPOS>ATOM
      1 C4          -0.0680    -0.1740    -0.5030 cc         1 15V       0.015700
      2 C14          1.2220     1.5920     6.1070 ca         1 15V      -0.113000
      3 C5           3.2400     0.1820     0.8260 cc         1 15V      -0.344800
      4 C6           3.4220     0.2890    -0.6040 cc         1 15V       0.448500
      5 C11          3.4250     0.5800     6.0780 ca         1 15V       0.033800
      6 C7           4.3490     0.2480     1.7740 c          1 15V       0.729300
      7 C8           6.8790     0.1520     5.4090 cc         1 15V       0.331600
      8 C9           6.4010     0.0520     4.0450 cc         1 15V      -0.300300
      9 C10          5.0080     0.2450     4.1300 cd         1 15V       0.050300
     10 C13          2.4940     1.4990     5.5500 ca         1 15V      -0.143000
     11 N1           1.0550    -0.1770     2.1200 nd         1 15V      -0.658000
     12 N2           1.2940     0.0010    -0.3410 na         1 15V       0.042200
     13 C3           1.8450    -0.0070     1.0060 cd         1 15V       0.398500
     14 N3           2.2500     0.1790    -1.2740 nd         1 15V      -0.556100
     15 C16          1.7840    -0.0990     7.7230 ca         1 15V       0.024400
     16 C15          0.8550     0.7990     7.1910 ca         1 15V      -0.131000
     17 C17          3.0650    -0.2200     7.1820 ca         1 15V      -0.114000
     18 N5           4.7270     0.4870     5.5150 na         1 15V       0.116300
     19 N4           5.8460     0.3840     6.2630 nd         1 15V      -0.506800
     20 N6           4.0370     0.2310     3.1320 ns         1 15V      -0.455100
     21 O1           5.5270     0.3210     1.3720 o          1 15V      -0.590100
     22 C2          -0.2420    -0.3420     1.9150 cd         1 15V       0.455200
     23 C1          -0.8550    -0.3480     0.6170 cd         1 15V      -0.311300
     24 H1          -0.4620    -0.1660    -1.5360 h4         1 15V       0.189000
     25 H2           0.5000     2.3110     5.6900 ha         1 15V       0.140000
     26 H3           4.3810     0.4390    -1.1150 h4         1 15V       0.082800
     27 H4           6.9850    -0.1200     3.1470 ha         1 15V       0.194000
     28 H5           8.4050    -0.5310     6.7660 hc         1 15V       0.051367
     29 H6           8.8650    -0.4980     5.0070 hc         1 15V       0.051367
     30 H7           8.7380     1.0520     5.9460 hc         1 15V       0.051367
     31 H8           2.7690     2.1620     4.7140 ha         1 15V       0.152000
     32 H9          -0.1520     0.8840     7.6280 ha         1 15V       0.149000
     33 H10          3.7880    -0.9260     7.6230 ha         1 15V       0.171000
     34 H11          3.0850     0.1660     3.4200 hn         1 15V       0.345500
     35 H12         -0.8680    -0.4820     2.8170 h4         1 15V       0.041100
     36 H13         -1.9380    -0.4900     0.5210 ha         1 15V       0.170000
     37 C12          8.2950     0.0340     5.8080 c3         1 15V      -0.122400
     38 Cl1          1.3500    -1.0660     9.0530 cl         1 15V      -0.086400
@<TRIPOS>BOND
     1     1    12 1   
     2     1    23 2   
     3     1    24 1   
     4     2    10 ar  
     5     2    16 ar  
     6     2    25 1   
     7     3     4 1   
     8     3     6 1   
     9     3    13 2   
    10     4    14 2   
    11     4    26 1   
    12     5    10 ar  
    13     5    17 ar  
    14     5    18 1   
    15     6    20 1   
    16     6    21 2   
    17     7     8 1   
    18     7    19 2   
    19     7    37 1   
    20     8     9 2   
    21     8    27 1   
    22     9    18 1   
    23     9    20 1   
    24    10    31 1   
    25    11    13 1   
    26    11    22 2   
    27    12    13 1   
    28    12    14 1   
    29    15    16 ar  
    30    15    17 ar  
    31    15    38 1   
    32    16    32 1   
    33    17    33 1   
    34    18    19 1   
    35    20    34 1   
    36    22    23 1   
    37    22    35 1   
    38    23    36 1   
    39    28    37 1   
    40    29    37 1   
    41    30    37 1   
@<TRIPOS>SUBSTRUCTURE
     1 15V         1 TEMP              0 ****  ****    0 ROOT
