@<TRIPOS>MOLECULE
molecule
   38    41     1     0     0
SMALL
bcc


@<TRIPOS>ATOM
      1 C4           0.0000     0.0000     0.0000 cc         1 15V       0.016700
      2 C14         10.3420     1.1210    -1.4380 ca         1 15V      -0.098000
      3 C5           3.4130    -0.0010     0.8700 cc         1 15V      -0.396800
      4 C6           3.5090    -0.0010    -0.5340 cc         1 15V       0.439500
      5 C11          8.8430     0.2430     0.2160 ca         1 15V       0.123800
      6 C7           4.5280    -0.0000     1.8200 c          1 15V       0.715300
      7 C8           8.0540     0.0000     4.1560 cd         1 15V       0.338600
      8 C9           6.7590     0.0010     3.6320 cd         1 15V      -0.356300
      9 C10          6.8590     0.0010     2.2730 cc         1 15V       0.056300
     10 C13          9.9620     0.9960    -0.1160 ca         1 15V      -0.115000
     11 N1           1.3850     0.0010     2.3470 nd         1 15V      -0.639000
     12 N2           1.3630     0.0000     0.0000 na         1 15V       0.048200
     13 C3           2.0400     0.0000     1.1850 cd         1 15V       0.461500
     14 N3           2.3030    -0.0000    -1.0380 nd         1 15V      -0.568100
     15 C16          8.4880    -0.2450    -2.1060 ca         1 15V       0.041400
     16 C15          9.6070     0.5020    -2.4320 ca         1 15V      -0.125000
     17 C17          8.1100    -0.3830    -0.7840 ca         1 15V      -0.151000
     18 N5           8.1830     0.0000     1.9610 na         1 15V       0.050300
     19 N4           8.9050    -0.0050     3.1620 nc         1 15V      -0.520800
     20 N6           5.7980    -0.0000     1.3700 ns         1 15V      -0.460100
     21 O1           4.3070     0.0000     3.0180 o          1 15V      -0.567100
     22 C2           0.0700     0.0110     2.3790 cc         1 15V       0.471200
     23 C1          -0.6610     0.0060     1.1850 cc         1 15V      -0.318300
     24 H1          -0.5490    -0.0040    -0.9340 h4         1 15V       0.181000
     25 H2          11.2160     1.7070    -1.6970 ha         1 15V       0.155000
     26 H3           4.4310    -0.0000    -1.1030 h4         1 15V       0.060800
     27 H4           5.8390     0.0010     4.2040 ha         1 15V       0.200000
     28 H5           7.8440    -0.7680     6.1310 hc         1 15V       0.047033
     29 H6           8.1780     0.9670     6.0490 hc         1 15V       0.047033
     30 H7           9.4710    -0.1980     5.7330 hc         1 15V       0.047033
     31 H8          10.5380     1.4830     0.6610 ha         1 15V       0.169000
     32 H9           9.9070     0.6020    -3.4680 ha         1 15V       0.155000
     33 H10          7.2370    -0.9710    -0.5280 ha         1 15V       0.160000
     34 H11          5.9790     0.0340     0.3860 hn         1 15V       0.313500
     35 H12         -0.4490     0.0160     3.3300 h4         1 15V       0.044100
     36 H13         -1.7440     0.0140     1.2070 ha         1 15V       0.164000
     37 C12          8.4120     0.0000     5.6200 c3         1 15V      -0.106400
     38 Cl1          7.5710    -1.0260    -3.3560 cl         1 15V      -0.084400
@<TRIPOS>BOND
     1    16     2 ar  
     2    16    15 ar  
     3    38    15 1   
     4     2    10 ar  
     5    15    17 ar  
     6    23    22 1   
     7    23     1 2   
     8    22    11 2   
     9    10     5 ar  
    10    17     5 ar  
    11     1    12 1   
    12     5    18 1   
    13    11    13 1   
    14    12    13 1   
    15    12    14 1   
    16    13     3 2   
    17    18    19 1   
    18    18     9 1   
    19    19     7 2   
    20    20     9 1   
    21    20     6 1   
    22     9     8 2   
    23    14     4 2   
    24     3     6 1   
    25     3     4 1   
    26     6    21 2   
    27     7     8 1   
    28     7    37 1   
    29     1    24 1   
    30     2    25 1   
    31     4    26 1   
    32     8    27 1   
    33    37    28 1   
    34    37    29 1   
    35    37    30 1   
    36    10    31 1   
    37    16    32 1   
    38    17    33 1   
    39    20    34 1   
    40    22    35 1   
    41    23    36 1   
@<TRIPOS>SUBSTRUCTURE
     1 15V         1 TEMP              0 ****  ****    0 ROOT
