@<TRIPOS>MOLECULE
15W
   32    34     1     0     0
SMALL
bcc


@<TRIPOS>ATOM
      1 CAS        -0.0240   -0.1640   -0.0560 c3        1 15W      0.111700
      2 OAR         1.3610    0.1580    0.0110 os        1 15W     -0.322900
      3 CAP         1.9460    0.0880    1.2570 ca        1 15W      0.148100
      4 CAO         1.2740   -0.2780    2.4300 ca        1 15W     -0.189000
      5 CAN         1.9740   -0.3140    3.6340 ca        1 15W     -0.057000
      6 CAL         3.3150    0.4200    1.2880 ca        1 15W     -0.189000
      7 CAM         3.9980    0.3790    2.4940 ca        1 15W     -0.057000
      8 CAK         3.3370    0.0060    3.6760 ca        1 15W     -0.117800
      9 CAI         4.0760   -0.0500    4.9360 cc        1 15W      0.204900
     10 OAJ         3.2360    0.1670    6.0220 os        1 15W     -0.226200
     11 CAF         3.8100    0.1340    7.2820 ca        1 15W      0.178100
     12 CAA         2.9180    0.3550    8.3430 ca        1 15W     -0.196000
     13 CAB         3.4370    0.3370    9.6430 ca        1 15W      0.175100
     14 OAT         2.5370    0.5550   10.6570 oh        1 15W     -0.490100
     15 CAC         4.8050    0.1070    9.8870 ca        1 15W     -0.247000
     16 CAD         5.6610   -0.1070    8.8170 ca        1 15W     -0.008000
     17 CAE         5.1790   -0.0970    7.4990 ca        1 15W     -0.250600
     18 CAG         6.0740   -0.3240    6.3560 c         1 15W      0.594900
     19 OAQ         7.2900   -0.5300    6.4780 o         1 15W     -0.552100
     20 CAH         5.4030   -0.2880    5.0590 cd        1 15W     -0.322200
     21 H1         -0.6240    0.5430    0.5680 h1        1 15W      0.048033
     22 H2         -0.1990   -1.2190    0.2660 h1        1 15W      0.048033
     23 H3         -0.2670   -0.0360   -1.1420 h1        1 15W      0.048033
     24 H4          0.2060   -0.5350    2.4160 ha        1 15W      0.150000
     25 H5          1.4520   -0.5960    4.5620 ha        1 15W      0.147500
     26 H6          3.8210    0.7100    0.3560 ha        1 15W      0.150000
     27 H7          5.0660    0.6470    2.5220 ha        1 15W      0.147500
     28 H8          1.8510    0.5370    8.1600 ha        1 15W      0.171000
     29 H9          3.0180    0.5210   11.4980 ho        1 15W      0.426000
     30 H10         5.1860    0.0990   10.9170 ha        1 15W      0.142000
     31 H11         6.7370   -0.2890    8.9810 ha        1 15W      0.163000
     32 H12         6.0300   -0.4730    4.1740 ha        1 15W      0.168000
@<TRIPOS>BOND
     1    1    2 1   
     2    1   21 1   
     3    1   22 1   
     4    1   23 1   
     5    2    3 1   
     6    3    4 ar  
     7    3    6 ar  
     8    4    5 ar  
     9    4   24 1   
    10    5    8 ar  
    11    5   25 1   
    12    6    7 ar  
    13    6   26 1   
    14    7    8 ar  
    15    7   27 1   
    16    8    9 1   
    17    9   10 1   
    18    9   20 2   
    19   10   11 1   
    20   11   12 ar  
    21   11   17 ar  
    22   12   13 ar  
    23   12   28 1   
    24   13   14 1   
    25   13   15 ar  
    26   14   29 1   
    27   15   16 ar  
    28   15   30 1   
    29   16   17 ar  
    30   16   31 1   
    31   17   18 1   
    32   18   19 2   
    33   18   20 1   
    34   20   32 1   
@<TRIPOS>SUBSTRUCTURE
     1 15W         1 TEMP              0 ****  ****    0 ROOT
