@<TRIPOS>MOLECULE
15W
   32    34     1     0     0
SMALL
bcc


@<TRIPOS>ATOM
      1 CAS         -0.0680     0.0560    -0.0640 c3         1 15W       0.111700
      2 OAR          1.3450    -0.0850     0.0330 os         1 15W      -0.321900
      3 CAP          1.8760    -0.0710     1.3050 ca         1 15W       0.148100
      4 CAO          1.1230     0.0670     2.4780 ca         1 15W      -0.189000
      5 CAN          1.7720     0.0680     3.7100 ca         1 15W      -0.057500
      6 CAL          3.2770    -0.2110     1.3630 ca         1 15W      -0.189000
      7 CAM          3.9080    -0.2070     2.5980 ca         1 15W      -0.057500
      8 CAK          3.1650    -0.0620     3.7820 ca         1 15W      -0.117800
      9 CAI          3.8340    -0.0400     5.0820 cc         1 15W       0.204900
     10 OAJ          5.0300    -0.7460     5.0440 os         1 15W      -0.225200
     11 CAF          5.7700    -0.7980     6.2130 ca         1 15W       0.178100
     12 CAA          6.9710    -1.5180     6.1190 ca         1 15W      -0.195000
     13 CAB          7.7660    -1.6110     7.2680 ca         1 15W       0.175100
     14 OAT          8.9330    -2.3220     7.1410 oh         1 15W      -0.489100
     15 CAC          7.3800    -1.0050     8.4800 ca         1 15W      -0.247000
     16 CAD          6.1880    -0.3010     8.5410 ca         1 15W      -0.008000
     17 CAE          5.3640    -0.1860     7.4110 ca         1 15W      -0.250600
     18 CAG          4.0980     0.5580     7.4590 c          1 15W       0.594900
     19 OAQ          3.6790     1.1170     8.4830 o          1 15W      -0.552100
     20 CAH          3.3740     0.5850     6.1900 cd         1 15W      -0.323200
     21 H1          -0.3960     1.0360     0.3590 h1         1 15W       0.048033
     22 H2          -0.2560     0.0190    -1.1670 h1         1 15W       0.048033
     23 H3          -0.5840    -0.7890     0.4530 h1         1 15W       0.048033
     24 H4           0.0300     0.1710     2.4410 ha         1 15W       0.150000
     25 H5           1.1790     0.1670     4.6330 ha         1 15W       0.147500
     26 H6           3.8490    -0.3200     0.4310 ha         1 15W       0.150000
     27 H7           5.0030    -0.3210     2.6560 ha         1 15W       0.147500
     28 H8           7.2760    -1.9940     5.1780 ha         1 15W       0.171000
     29 H9           9.3860    -2.3120     7.9980 ho         1 15W       0.426000
     30 H10          8.0220    -1.0940     9.3670 ha         1 15W       0.142000
     31 H11          5.8630     0.1820     9.4780 ha         1 15W       0.163000
     32 H12          2.4310     1.1510     6.1730 ha         1 15W       0.167000
@<TRIPOS>BOND
     1     1     2 1   
     2     1    21 1   
     3     1    22 1   
     4     1    23 1   
     5     2     3 1   
     6     3     4 ar  
     7     3     6 ar  
     8     4     5 ar  
     9     4    24 1   
    10     5     8 ar  
    11     5    25 1   
    12     6     7 ar  
    13     6    26 1   
    14     7     8 ar  
    15     7    27 1   
    16     8     9 1   
    17     9    10 1   
    18     9    20 2   
    19    10    11 1   
    20    11    12 ar  
    21    11    17 ar  
    22    12    13 ar  
    23    12    28 1   
    24    13    14 1   
    25    13    15 ar  
    26    14    29 1   
    27    15    16 ar  
    28    15    30 1   
    29    16    17 ar  
    30    16    31 1   
    31    17    18 1   
    32    18    19 2   
    33    18    20 1   
    34    20    32 1   
@<TRIPOS>SUBSTRUCTURE
     1 15W         1 TEMP              0 ****  ****    0 ROOT
