@<TRIPOS>MOLECULE
molecule
   32    34     1     0     0
SMALL
bcc


@<TRIPOS>ATOM
      1 CAS          0.0000     0.0000     0.0000 c3         1 15W       0.126700
      2 OAR          1.4290     0.0000     0.0000 os         1 15W      -0.322900
      3 CAP          2.0450     0.0000     1.2100 ca         1 15W       0.165100
      4 CAO          1.2850    -0.0070     2.3740 ca         1 15W      -0.197500
      5 CAN          1.9060    -0.0070     3.6030 ca         1 15W      -0.053000
      6 CAL          3.4320     0.0000     1.2810 ca         1 15W      -0.197500
      7 CAM          4.0620     0.0000     2.5060 ca         1 15W      -0.053000
      8 CAK          3.3020    -0.0010     3.6790 ca         1 15W      -0.116800
      9 CAI          3.9710    -0.0020     4.9930 cc         1 15W       0.220900
     10 OAJ          3.2160    -0.0080     6.1030 os         1 15W      -0.216200
     11 CAF          3.7520    -0.0100     7.3410 ca         1 15W       0.172100
     12 CAA          2.9420    -0.0180     8.4670 ca         1 15W      -0.191000
     13 CAB          3.5190    -0.0190     9.7280 ca         1 15W       0.160100
     14 OAT          2.7260    -0.0260    10.8300 oh         1 15W      -0.519100
     15 CAC          4.9040    -0.0140     9.8720 ca         1 15W      -0.189000
     16 CAD          5.7140    -0.0060     8.7720 ca         1 15W      -0.027000
     17 CAE          5.1480    -0.0040     7.4980 ca         1 15W      -0.238600
     18 CAG          5.9920     0.0040     6.2860 c          1 15W       0.587900
     19 OAQ          7.2080     0.0090     6.3610 o          1 15W      -0.550100
     20 CAH          5.3320    -0.0010     5.0350 cd         1 15W      -0.350200
     21 H1          -0.3610     0.0040    -1.0210 h1         1 15W       0.045033
     22 H2          -0.3610     0.8820     0.5140 h1         1 15W       0.045033
     23 H3          -0.3610    -0.8870     0.5070 h1         1 15W       0.045033
     24 H4           0.2040    -0.0120     2.3140 ha         1 15W       0.147000
     25 H5           1.3130    -0.0110     4.5100 ha         1 15W       0.148000
     26 H6           4.0200     0.0010     0.3710 ha         1 15W       0.147000
     27 H7           5.1440     0.0030     2.5600 ha         1 15W       0.148000
     28 H8           1.8690    -0.1220     8.3620 ha         1 15W       0.157000
     29 H9           2.4950     0.8590    11.0570 ho         1 15W       0.428000
     30 H10          5.3420    -0.0160    10.8630 ha         1 15W       0.149000
     31 H11          6.7910    -0.0020     8.8890 ha         1 15W       0.163000
     32 H12          5.9020    -0.1250     4.1230 ha         1 15W       0.169000
@<TRIPOS>BOND
     1     1     2 1
     2     2     3 1
     3     3     6 ar
     4     3     4 ar
     5     6     7 ar
     6     4     5 ar
     7     7     8 ar
     8     5     8 ar
     9     8     9 1
    10     9    10 1
    11     9    20 2
    12    10    11 1
    13    20    18 1
    14    11    12 ar
    15    11    17 ar
    16    12    13 ar
    17    18    17 1
    18    18    19 2
    19    17    16 ar
    20    13    14 1
    21    13    15 ar
    22    16    15 ar
    23     1    21 1
    24     1    22 1
    25     1    23 1
    26     4    24 1
    27     5    25 1
    28     6    26 1
    29     7    27 1
    30    12    28 1
    31    14    29 1
    32    15    30 1
    33    16    31 1
    34    20    32 1
@<TRIPOS>SUBSTRUCTURE
     1 15W         1 TEMP              0 ****  ****    0 ROOT
