@<TRIPOS>MOLECULE
molecule
   48    50     1     0     0
SMALL
bcc


@<TRIPOS>ATOM
      1 C1           0.0000     0.0000     0.0000 cp         1 15X      -0.025000
      2 C2           1.3940     0.0000     0.0000 ca         1 15X      -0.050000
      3 C3           2.0810     0.0000     1.1970 ca         1 15X      -0.154200
      4 C4           1.3900     0.0000     2.3940 ca         1 15X      -0.065000
      5 C5           0.0070    -0.0000     2.4010 ca         1 15X      -0.150000
      6 C6          -0.6920     0.0000     1.2110 ca         1 15X      -0.066000
      7 C13         -2.1380     0.0170    -3.6800 ca         1 15X      -0.052000
      8 C14         -1.3540    -1.0700    -3.3430 ca         1 15X      -0.171300
      9 C15         -0.6560    -1.0820    -2.1490 ca         1 15X       0.183900
     10 C16         -0.7440     0.0060    -1.2820 cp         1 15X      -0.112000
     11 C17         -1.5390     1.1030    -1.6280 ca         1 15X       0.191100
     12 C18         -2.2320     1.1010    -2.8280 ca         1 15X      -0.231000
     13 C28         -2.2590    -3.2970    -3.8710 ca         1 15X      -0.046300
     14 C30         -3.5380    -3.2740    -4.3990 ca         1 15X      -0.096000
     15 C31         -4.4570    -4.2350    -4.0260 ca         1 15X      -0.118000
     16 C32         -4.0980    -5.2240    -3.1210 ca         1 15X      -0.011400
     17 C33         -2.8130    -5.2440    -2.5930 ca         1 15X      -0.118000
     18 C34         -1.8960    -4.2840    -2.9730 ca         1 15X      -0.096000
     19 O43         -1.6310     2.1690    -0.7900 os         1 15X      -0.312900
     20 N47          3.5620    -0.0010     1.1980 no         1 15X       0.293200
     21 O49          4.1720    -0.0020     0.1440 o          1 15X      -0.200000
     22 N51         -5.0280    -6.1990    -2.7410 ns         1 15X      -0.419100
     23 O51          4.1690    -0.0020     2.2540 o          1 15X      -0.200000
     24 C53         -5.9500    -6.6310    -3.6240 c          1 15X       0.571100
     25 N55         -6.9120    -7.4880    -3.2280 nz         1 15X      -0.669400
     26 O57         -5.9150    -6.2450    -4.7770 o          1 15X      -0.482100
     27 H2           1.9350    -0.0690    -0.9360 ha         1 15X       0.172000
     28 H4           1.9340     0.0020     3.3310 ha         1 15X       0.168000
     29 H5          -0.5290     0.0040     3.3430 ha         1 15X       0.149000
     30 H6          -1.7370    -0.1720     1.4370 ha         1 15X       0.145000
     31 H13         -2.6810     0.0200    -4.6170 ha         1 15X       0.139000
     32 H18         -2.8480     1.9500    -3.0980 ha         1 15X       0.150000
     33 H26         -1.4690    -1.9230    -5.2920 hc         1 15X       0.072700
     34 H26A        -0.2590    -2.6650    -4.2360 hc         1 15X       0.072700
     35 H30         -3.8180    -2.5020    -5.1050 ha         1 15X       0.160500
     36 H31         -5.4580    -4.2160    -4.4400 ha         1 15X       0.143000
     37 H33         -2.5290    -6.0160    -1.8880 ha         1 15X       0.143000
     38 H34         -0.8940    -4.2990    -2.5620 ha         1 15X       0.160500
     39 H43         -3.4750     2.8980    -1.3520 h1         1 15X       0.049700
     40 H43A        -2.0860     3.6570    -2.1420 h1         1 15X       0.049700
     41 H43B        -2.4540     4.0280    -0.4510 h1         1 15X       0.049700
     42 HN51        -4.9390    -6.6520    -1.8530 hn         1 15X       0.337500
     43 HN55        -6.4930    -8.2590    -2.7460 hn         1 15X       0.479800
     44 HN5A        -7.5470    -7.0170    -2.6140 hn         1 15X       0.479800
     45 C26         -1.2580    -2.2480    -4.2800 c3         1 15X       0.013200
     46 H553        -7.4090    -7.8250    -4.0280 hn         1 15X       0.479800
     47 F59          0.1090    -2.1480    -1.8230 f          1 15X      -0.132900
     48 C43         -2.4620     3.2540    -1.2090 c3         1 15X       0.124700
@<TRIPOS>BOND
     1     1     2 ar
     2     1     6 ar
     3     1    10 1
     4     2     3 ar
     5     3     4 ar
     6     3    20 1
     7     4     5 ar
     8     5     6 ar
     9     7     8 ar
    10     7    12 ar
    11     8     9 ar
    12     8    45 1
    13     9    10 ar
    14     9    47 1
    15    10    11 ar
    16    11    12 ar
    17    11    19 1
    18    45    13 1
    19    13    14 ar
    20    13    18 ar
    21    14    15 ar
    22    15    16 ar
    23    16    17 ar
    24    16    22 1
    25    17    18 ar
    26    48    19 1
    27    20    21 1
    28    20    23 1
    29    22    24 1
    30    24    25 1
    31    24    26 2
    32     2    27 1
    33     4    28 1
    34     5    29 1
    35     6    30 1
    36     7    31 1
    37    12    32 1
    38    45    33 1
    39    45    34 1
    40    14    35 1
    41    15    36 1
    42    17    37 1
    43    18    38 1
    44    48    39 1
    45    48    40 1
    46    48    41 1
    47    22    42 1
    48    25    43 1
    49    25    44 1
    50    46    25 1
@<TRIPOS>SUBSTRUCTURE
     1 15X         1 TEMP              0 ****  ****    0 ROOT
