@<TRIPOS>MOLECULE
15X
   48    50     1     0     0
SMALL
bcc


@<TRIPOS>ATOM
      1 C1          -0.7390    -0.2950     0.0580 cp         1 15X      -0.018000
      2 C2          -0.0080    -1.4500     0.3660 ca         1 15X      -0.064000
      3 C3           0.5820    -1.5890     1.6300 ca         1 15X      -0.182200
      4 C4           0.4740    -0.5710     2.5940 ca         1 15X      -0.052000
      5 C5          -0.2420     0.5790     2.2680 ca         1 15X      -0.132000
      6 C6          -0.8460     0.7230     1.0180 ca         1 15X      -0.038000
      7 C13         -2.2210    -0.2080    -3.9490 ca         1 15X      -0.050000
      8 C14         -2.3850    -1.3630    -3.1790 ca         1 15X      -0.161300
      9 C15         -2.0070    -1.3240    -1.8190 ca         1 15X       0.164900
     10 C16         -1.3420    -0.2020    -1.2690 cp         1 15X      -0.121000
     11 C17         -1.2210     0.9520    -2.0760 ca         1 15X       0.181100
     12 C18         -1.6710     0.9470    -3.4050 ca         1 15X      -0.210000
     13 C28         -2.0800    -3.7990    -3.5390 ca         1 15X      -0.033300
     14 C30         -0.6970    -3.7330    -3.7570 ca         1 15X      -0.109500
     15 C31          0.1280    -4.8030    -3.4340 ca         1 15X      -0.122500
     16 C32         -0.4310    -5.9770    -2.8860 ca         1 15X      -0.061400
     17 C33         -1.8270    -6.0760    -2.7350 ca         1 15X      -0.122500
     18 C34         -2.6370    -4.9910    -3.0620 ca         1 15X      -0.109500
     19 O43         -0.6340     2.0400    -1.4750 os         1 15X      -0.325900
     20 N47          1.3150    -2.8360     1.9360 no         1 15X       0.332200
     21 O49          1.8850    -2.9710     2.9770 o          1 15X      -0.252500
     22 N51          0.4030    -7.0710    -2.5310 ns         1 15X      -0.432100
     23 O51          1.3180    -3.7280     1.1060 o          1 15X      -0.252500
     24 C53          1.2120    -7.0830    -1.4330 c          1 15X       0.642100
     25 N55          1.2050    -5.8700    -0.5160 nz         1 15X      -0.722400
     26 O57          1.9790    -7.9860    -1.0810 o          1 15X      -0.489100
     27 C26         -2.9460    -2.6060    -3.7820 c3         1 15X       0.005200
     28 F59         -2.2680    -2.3930    -1.0270 f          1 15X      -0.139900
     29 C43         -0.4240     3.1910    -2.2940 c3         1 15X       0.108700
     30 H2           0.0910    -2.2490    -0.3860 ha         1 15X       0.148000
     31 H4           0.9450    -0.6810     3.5860 ha         1 15X       0.178000
     32 H5          -0.3330     1.3860     3.0130 ha         1 15X       0.165000
     33 H6          -1.4020     1.6430     0.7720 ha         1 15X       0.170000
     34 H13         -2.5380    -0.2100    -5.0050 ha         1 15X       0.153000
     35 H18         -1.5830     1.8480    -4.0300 ha         1 15X       0.160000
     36 H26         -3.0710    -2.4710    -4.8930 hc         1 15X       0.081200
     37 H26A        -3.9710    -2.7880    -3.3510 hc         1 15X       0.081200
     38 H30         -0.2570    -2.8150    -4.1830 ha         1 15X       0.162000
     39 H31          1.2100    -4.7310    -3.6290 ha         1 15X       0.153000
     40 H33         -2.2910    -7.0030    -2.3590 ha         1 15X       0.153000
     41 H34         -3.7280    -5.0720    -2.9250 ha         1 15X       0.162000
     42 H43          0.2320     2.9420    -3.1620 h1         1 15X       0.058700
     43 H43A         0.0890     3.9040    -1.5990 h1         1 15X       0.058700
     44 H43B        -1.4010     3.6080    -2.6380 h1         1 15X       0.058700
     45 HN51         0.3950    -7.8950    -3.1020 hn         1 15X       0.388500
     46 HN55         0.3490    -5.8450     0.0490 hn         1 15X       0.479800
     47 HN5A         2.0090    -5.9310     0.1260 hn         1 15X       0.479800
     48 H553         1.2650    -4.9880    -1.0370 hn         1 15X       0.479800
@<TRIPOS>BOND
     1     1     2 ar  
     2     1     6 ar  
     3     1    10 1   
     4     2     3 ar  
     5     2    30 1   
     6     3     4 ar  
     7     3    20 1   
     8     4     5 ar  
     9     4    31 1   
    10     5     6 ar  
    11     5    32 1   
    12     6    33 1   
    13     7     8 ar  
    14     7    12 ar  
    15     7    34 1   
    16     8     9 ar  
    17     8    27 1   
    18     9    10 ar  
    19     9    28 1   
    20    10    11 ar  
    21    11    12 ar  
    22    11    19 1   
    23    12    35 1   
    24    13    14 ar  
    25    13    18 ar  
    26    13    27 1   
    27    14    15 ar  
    28    14    38 1   
    29    15    16 ar  
    30    15    39 1   
    31    16    17 ar  
    32    16    22 1   
    33    17    18 ar  
    34    17    40 1   
    35    18    41 1   
    36    19    29 1   
    37    20    21 1   
    38    20    23 1   
    39    22    24 1   
    40    22    45 1   
    41    24    25 1   
    42    24    26 2   
    43    25    46 1   
    44    25    47 1   
    45    25    48 1   
    46    27    36 1   
    47    27    37 1   
    48    29    42 1   
    49    29    43 1   
    50    29    44 1   
@<TRIPOS>SUBSTRUCTURE
     1 15X         1 TEMP              0 ****  ****    0 ROOT
