@<TRIPOS>MOLECULE
molecule
   27    28     1     0     0
SMALL
bcc


@<TRIPOS>ATOM
      1 S            0.0000     0.0000     0.0000 s6         1 15Y       1.320100
      2 O1           1.4210     0.0000     0.0000 o          1 15Y      -0.708533
      3 O2          -0.7770     0.0000     1.1900 o          1 15Y      -0.708533
      4 C1          -0.6550     3.9380     1.7190 c3         1 15Y       0.168800
      5 C2          -1.8080     4.7900     1.1760 c3         1 15Y      -0.080700
      6 C3          -1.5630     5.0180    -0.3180 c3         1 15Y      -0.018100
      7 C4          -1.2080     3.7110    -0.9790 ca         1 15Y      -0.171300
      8 C5          -1.2740     3.6390    -2.3610 ca         1 15Y      -0.090000
      9 C6          -0.9540     2.4670    -3.0190 ca         1 15Y      -0.202000
     10 C7          -0.5630     1.3560    -2.2940 ca         1 15Y      -0.003000
     11 C8          -0.4980     1.4190    -0.9180 ca         1 15Y      -0.296500
     12 C9          -0.8240     2.6000    -0.2490 ca         1 15Y       0.193600
     13 C10         -1.8460     6.1340     1.9060 c3         1 15Y      -0.088100
     14 N           -0.7530     2.5940     1.1430 nu         1 15Y      -0.658600
     15 H3          -2.7460     4.2650     1.3150 hc         1 15Y       0.073700
     16 H4          -2.4730     5.3990    -0.7650 hc         1 15Y       0.036700
     17 H5          -0.7330     5.7040    -0.4330 hc         1 15Y       0.036700
     18 H6          -1.5800     4.5090    -2.9310 ha         1 15Y       0.103000
     19 H7          -1.0050     2.4190    -4.1000 ha         1 15Y       0.108000
     20 H8          -0.3110     0.4350    -2.8070 ha         1 15Y       0.151000
     21 H9          -2.6050     6.7650     1.4600 hc         1 15Y       0.027033
     22 H10         -2.0800     5.9710     2.9510 hc         1 15Y       0.027033
     23 H11         -0.8800     6.6170     1.8240 hc         1 15Y       0.027033
     24 H12          0.0330     2.0480     1.4350 hn         1 15Y       0.396800
     25 O3          -0.4300    -1.2060    -0.8220 o          1 15Y      -0.708533
     26 H1          -0.7270     3.8760     2.7980 h1         1 15Y       0.031200
     27 H2           0.2910     4.3850     1.4370 h1         1 15Y       0.031200
@<TRIPOS>BOND
     1    13     5 1   
     2     5     6 1   
     3     5     4 1   
     4     6     7 1   
     5     4    14 1   
     6     7     8 ar  
     7     7    12 ar  
     8     8     9 ar  
     9    14    12 1   
    10    12    11 ar  
    11     9    10 ar  
    12    11    10 ar  
    13    11     1 1   
    14     1     2 1   
    15     1     3 1   
    16     4    26 1   
    17     4    27 1   
    18     5    15 1   
    19     6    16 1   
    20     6    17 1   
    21     8    18 1   
    22     9    19 1   
    23    10    20 1   
    24    13    21 1   
    25    13    22 1   
    26    13    23 1   
    27    14    24 1   
    28     1    25 1   
@<TRIPOS>SUBSTRUCTURE
     1 15Y         1 TEMP              0 ****  ****    0 ROOT
