@<TRIPOS>MOLECULE
15Y
   27    28     1     0     0
SMALL
bcc


@<TRIPOS>ATOM
      1 S            0.0000     0.0000     0.0000 s6         1 15Y       1.029100
      2 O1           1.4210     0.0000     0.0000 o          1 15Y      -0.656200
      3 O2          -0.7770     0.0000     1.1900 o          1 15Y      -0.656200
      4 C1          -0.6550     3.9380     1.7190 c3         1 15Y       0.133800
      5 C2          -1.8080     4.7900     1.1760 c3         1 15Y      -0.063700
      6 C3          -1.5630     5.0180    -0.3180 c3         1 15Y       0.053900
      7 C4          -1.2080     3.7110    -0.9790 ca         1 15Y      -0.192300
      8 C5          -1.2740     3.6390    -2.3610 ca         1 15Y      -0.069000
      9 C6          -0.9540     2.4670    -3.0190 ca         1 15Y      -0.195000
     10 C7          -0.5630     1.3560    -2.2940 ca         1 15Y       0.030000
     11 C8          -0.4980     1.4190    -0.9180 ca         1 15Y      -0.144500
     12 C9          -0.8240     2.6000    -0.2490 ca         1 15Y       0.106600
     13 C10         -1.8460     6.1340     1.9060 c3         1 15Y       0.009900
     14 N           -0.7530     2.5940     1.1430 nu         1 15Y      -0.367600
     15 H3          -2.7460     4.2650     1.3150 hc         1 15Y       0.045700
     16 H4          -2.4730     5.3990    -0.7650 hc         1 15Y       0.008200
     17 H5          -0.7330     5.7040    -0.4330 hc         1 15Y       0.008200
     18 H6          -1.5800     4.5090    -2.9310 ha         1 15Y       0.080000
     19 H7          -1.0050     2.4190    -4.1000 ha         1 15Y       0.088000
     20 H8          -0.3110     0.4350    -2.8070 ha         1 15Y       0.122000
     21 H9          -2.6050     6.7650     1.4600 hc         1 15Y      -0.004633
     22 H10         -2.0800     5.9710     2.9510 hc         1 15Y      -0.004633
     23 H11         -0.8800     6.6170     1.8240 hc         1 15Y      -0.004633
     24 H12          0.0330     2.0480     1.4350 hn         1 15Y       0.293800
     25 O3          -0.4300    -1.2060    -0.8220 o          1 15Y      -0.656200
     26 H1          -0.7270     3.8760     2.7980 h1         1 15Y       0.004200
     27 H2           0.2910     4.3850     1.4370 h1         1 15Y       0.004200
@<TRIPOS>BOND
     1     1     2 1   
     2     1     3 1   
     3     1    11 1   
     4     1    25 1   
     5     4     5 1   
     6     4    14 1   
     7     4    26 1   
     8     4    27 1   
     9     5     6 1   
    10     5    13 1   
    11     5    15 1   
    12     6     7 1   
    13     6    16 1   
    14     6    17 1   
    15     7     8 ar  
    16     7    12 ar  
    17     8     9 ar  
    18     8    18 1   
    19     9    10 ar  
    20     9    19 1   
    21    10    11 ar  
    22    10    20 1   
    23    11    12 ar  
    24    12    14 1   
    25    13    21 1   
    26    13    22 1   
    27    13    23 1   
    28    14    24 1   
@<TRIPOS>SUBSTRUCTURE
     1 15Y         1 TEMP              0 ****  ****    0 ROOT
