@<TRIPOS>MOLECULE
molecule
   30    32     1     0     0
SMALL
bcc


@<TRIPOS>ATOM
      1 CAM          0.0000     0.0000     0.0000 ca         1 15Z      -0.120000
      2 CAL          1.3820     0.0000     0.0000 ca         1 15Z       0.086100
      3 OAT          2.0610    -0.0010    -1.1790 oh         1 15Z      -0.506100
      4 CAP          2.0790     0.0000     1.2070 ca         1 15Z       0.114100
      5 OAS          3.4370    -0.0010     1.2040 oh         1 15Z      -0.507100
      6 CAO          1.3880     0.0010     2.4110 ca         1 15Z      -0.157000
      7 CAN          0.0110     0.0010     2.4190 ca         1 15Z      -0.091000
      8 CAK         -0.6950     0.0060     1.2120 ca         1 15Z      -0.068800
      9 CAJ         -2.1700     0.0080     1.2190 cc         1 15Z       0.210900
     10 OAG         -2.8210     0.0030     0.0450 os         1 15Z      -0.214200
     11 CAF         -4.1680     0.0040    -0.0330 ca         1 15Z       0.171100
     12 CAA         -4.8100    -0.0010    -1.2630 ca         1 15Z      -0.190000
     13 CAB         -6.1940    -0.0010    -1.3160 ca         1 15Z       0.162100
     14 OAR         -6.8210    -0.0060    -2.5190 oh         1 15Z      -0.518100
     15 CAC         -6.9470     0.0030    -0.1430 ca         1 15Z      -0.187000
     16 CAD         -6.3290     0.0090     1.0740 ca         1 15Z      -0.027000
     17 CAE         -4.9360     0.0090     1.1440 ca         1 15Z      -0.238600
     18 CAH         -4.2330     0.0150     2.4410 c          1 15Z       0.585900
     19 OAQ         -4.8480     0.0190     3.4950 o          1 15Z      -0.547100
     20 CAI         -2.8200     0.0080     2.4150 cd         1 15Z      -0.338200
     21 H1          -0.5430     0.0040    -0.9370 ha         1 15Z       0.158000
     22 H2           1.9820    -0.8470    -1.5870 ho         1 15Z       0.426000
     23 H3           3.7520     0.8560     1.4370 ho         1 15Z       0.428000
     24 H4           1.9340    -0.0010     3.3470 ha         1 15Z       0.151000
     25 H5          -0.5260     0.0040     3.3600 ha         1 15Z       0.149000
     26 H6          -4.2330    -0.0970    -2.1750 ha         1 15Z       0.158000
     27 H7          -6.9190     0.8800    -2.8260 ho         1 15Z       0.429000
     28 H8          -8.0290     0.0030    -0.1980 ha         1 15Z       0.150000
     29 H9          -6.9180     0.0130     1.9830 ha         1 15Z       0.163000
     30 H10         -2.2620    -0.1220     3.3340 ha         1 15Z       0.170000
@<TRIPOS>BOND
     1    15    16 ar
     2    15    13 ar
     3    16    17 ar
     4    14    13 1
     5    13    12 ar
     6    19    18 2
     7    17    18 1
     8    17    11 ar
     9    18    20 1
    10    12    11 ar
    11    11    10 1
    12    20     9 2
    13    10     9 1
    14     9     8 1
    15     8     1 ar
    16     8     7 ar
    17     1     2 ar
    18     7     6 ar
    19     2     3 1
    20     2     4 ar
    21     6     4 ar
    22     4     5 1
    23     1    21 1
    24     3    22 1
    25     5    23 1
    26     6    24 1
    27     7    25 1
    28    12    26 1
    29    14    27 1
    30    15    28 1
    31    16    29 1
    32    20    30 1
@<TRIPOS>SUBSTRUCTURE
     1 15Z         1 TEMP              0 ****  ****    0 ROOT
