@<TRIPOS>MOLECULE
15Z
   30    32     1     0     0
SMALL
bcc


@<TRIPOS>ATOM
      1 CAM          0.0080    -0.2860     0.0890 ca         1 15Z      -0.156000
      2 CAL          1.4000    -0.2570    -0.0030 ca         1 15Z       0.098100
      3 OAT          2.0820    -0.5030    -1.1700 oh         1 15Z      -0.471100
      4 CAP          2.1790     0.0350     1.1460 ca         1 15Z       0.126100
      5 OAS          3.5410     0.0500     0.9870 oh         1 15Z      -0.467100
      6 CAO          1.5440     0.2880     2.3650 ca         1 15Z      -0.196000
      7 CAN          0.1530     0.2560     2.4500 ca         1 15Z      -0.080000
      8 CAK         -0.6190    -0.0240     1.3170 ca         1 15Z      -0.075800
      9 CAJ         -2.0800    -0.0380     1.3960 cc         1 15Z       0.196900
     10 OAG         -2.5120    -0.4040     2.6660 os         1 15Z      -0.226200
     11 CAF         -3.8800    -0.4530     2.8760 ca         1 15Z       0.184100
     12 CAA         -4.2660    -0.8260     4.1730 ca         1 15Z      -0.255000
     13 CAB         -5.6340    -0.8960     4.4530 ca         1 15Z       0.180100
     14 OAR         -6.1110    -1.2510     5.6890 oh         1 15Z      -0.487100
     15 CAC         -6.6040    -0.6030     3.4710 ca         1 15Z      -0.190000
     16 CAD         -6.1910    -0.2380     2.2010 ca         1 15Z      -0.015000
     17 CAE         -4.8240    -0.1570     1.8800 ca         1 15Z      -0.250600
     18 CAH         -4.3760     0.2280     0.5370 c          1 15Z       0.593900
     19 OAQ         -5.1540     0.4970    -0.3900 o          1 15Z      -0.548100
     20 CAI         -2.9220     0.2690     0.3830 cd         1 15Z      -0.315200
     21 H1          -0.5950    -0.5220    -0.8010 ha         1 15Z       0.148000
     22 H2           1.4280    -0.6910    -1.8600 ho         1 15Z       0.419000
     23 H3           3.9360     0.2600     1.8470 ho         1 15Z       0.420000
     24 H4           2.1440     0.5140     3.2590 ha         1 15Z       0.143000
     25 H5          -0.3420     0.4520     3.4130 ha         1 15Z       0.152000
     26 H6          -3.5060    -1.0540     4.9320 ha         1 15Z       0.156000
     27 H7          -5.3550    -1.4300     6.2690 ho         1 15Z       0.426000
     28 H8          -7.6700    -0.6700     3.7320 ha         1 15Z       0.160000
     29 H9          -6.9270    -0.0040     1.4130 ha         1 15Z       0.165000
     30 H10         -2.5380     0.5740    -0.6020 ha         1 15Z       0.167000
@<TRIPOS>BOND
     1     1     2 ar  
     2     1     8 ar  
     3     1    21 1   
     4     2     3 1   
     5     2     4 ar  
     6     3    22 1   
     7     4     5 1   
     8     4     6 ar  
     9     5    23 1   
    10     6     7 ar  
    11     6    24 1   
    12     7     8 ar  
    13     7    25 1   
    14     8     9 1   
    15     9    10 1   
    16     9    20 2   
    17    10    11 1   
    18    11    12 ar  
    19    11    17 ar  
    20    12    13 ar  
    21    12    26 1   
    22    13    14 1   
    23    13    15 ar  
    24    14    27 1   
    25    15    16 ar  
    26    15    28 1   
    27    16    17 ar  
    28    16    29 1   
    29    17    18 1   
    30    18    19 2   
    31    18    20 1   
    32    20    30 1   
@<TRIPOS>SUBSTRUCTURE
     1 15Z         1 TEMP              0 ****  ****    0 ROOT
