@<TRIPOS>MOLECULE
15Z
   30    32     1     0     0
SMALL
bcc


@<TRIPOS>ATOM
      1 CAM        -0.0750   -0.2580    0.0200 ca        1 15Z     -0.092000
      2 CAL         1.3180   -0.1620   -0.0620 ca        1 15Z      0.104100
      3 OAT         1.9040   -0.5090   -1.2550 oh        1 15Z     -0.489100
      4 CAP         2.0590    0.2780    1.0580 ca        1 15Z      0.062100
      5 OAS         3.4250    0.3430    0.8950 oh        1 15Z     -0.512100
      6 CAO         1.4050    0.6200    2.2450 ca        1 15Z     -0.178000
      7 CAN         0.0180    0.5210    2.3210 ca        1 15Z     -0.097000
      8 CAK        -0.7230    0.0790    1.2160 ca        1 15Z     -0.074800
      9 CAJ        -2.1790   -0.0370    1.3200 cc        1 15Z      0.197900
     10 OAG        -2.7870    0.1380    0.0840 os        1 15Z     -0.221200
     11 CAF        -4.1690    0.0430    0.0420 ca        1 15Z      0.178100
     12 CAA        -4.7330    0.2210   -1.2310 ca        1 15Z     -0.194000
     13 CAB        -6.1260    0.1390   -1.3410 ca        1 15Z      0.176100
     14 OAR        -6.6460    0.3170   -2.5990 oh        1 15Z     -0.488100
     15 CAC        -6.9400   -0.1120   -0.2180 ca        1 15Z     -0.247000
     16 CAD        -6.3520   -0.2830    1.0250 ca        1 15Z     -0.008000
     17 CAE        -4.9590   -0.2080    1.1770 ca        1 15Z     -0.251600
     18 CAH        -4.3220   -0.3880    2.4870 c         1 15Z      0.594900
     19 OAQ        -4.9590   -0.6060    3.5280 o         1 15Z     -0.550100
     20 CAI        -2.8630   -0.2890    2.4590 cd        1 15Z     -0.316200
     21 H1         -0.6490   -0.5950   -0.8570 ha        1 15Z      0.171000
     22 H2          2.8620   -0.3910   -1.1640 ho        1 15Z      0.439000
     23 H3          3.8110    0.6550    1.7260 ho        1 15Z      0.434000
     24 H4          1.9840    0.9660    3.1130 ha        1 15Z      0.142000
     25 H5         -0.4950    0.8000    3.2550 ha        1 15Z      0.147000
     26 H6         -4.1040    0.4180   -2.1090 ha        1 15Z      0.173000
     27 H7         -7.6100    0.2370   -2.5410 ho        1 15Z      0.427000
     28 H8         -8.0310   -0.1720   -0.3330 ha        1 15Z      0.143000
     29 H9         -6.9670   -0.4800    1.9190 ha        1 15Z      0.163000
     30 H10        -2.3400   -0.4390    3.4150 ha        1 15Z      0.168000
@<TRIPOS>BOND
     1    1    2 ar  
     2    1    8 ar  
     3    1   21 1   
     4    2    3 1   
     5    2    4 ar  
     6    3   22 1   
     7    4    5 1   
     8    4    6 ar  
     9    5   23 1   
    10    6    7 ar  
    11    6   24 1   
    12    7    8 ar  
    13    7   25 1   
    14    8    9 1   
    15    9   10 1   
    16    9   20 2   
    17   10   11 1   
    18   11   12 ar  
    19   11   17 ar  
    20   12   13 ar  
    21   12   26 1   
    22   13   14 1   
    23   13   15 ar  
    24   14   27 1   
    25   15   16 ar  
    26   15   28 1   
    27   16   17 ar  
    28   16   29 1   
    29   17   18 1   
    30   18   19 2   
    31   18   20 1   
    32   20   30 1   
@<TRIPOS>SUBSTRUCTURE
     1 15Z         1 TEMP              0 ****  ****    0 ROOT
