@<TRIPOS>MOLECULE
160
   60    61     1     0     0
SMALL
bcc


@<TRIPOS>ATOM
      1 O35          2.4050     1.0560    -0.1150 o          1 160      -0.453100
      2 C18          2.8090    -0.0700     0.1690 c          1 160       0.600700
      3 C19          3.2770    -0.5190     1.4600 cc         1 160      -0.319700
      4 S20          3.4380     0.4950     2.7590 ss         1 160       0.508200
      5 C21          3.9740    -0.6330     3.7800 cc         1 160      -0.446600
      6 S24          4.5030    -0.5130     5.3960 sy         1 160       1.422300
      7 O33          5.3710    -1.5730     5.6480 o          1 160      -0.633800
      8 O34          4.9450     0.7940     5.5940 o          1 160      -0.633800
      9 C25          3.0430    -0.7550     6.1930 c3         1 160      -0.383300
     10 C22          4.0640    -1.8920     3.1480 cd         1 160      -0.068000
     11 C23          3.6640    -1.8310     1.8060 cd         1 160      -0.123000
     12 N17          2.8410    -1.0800    -0.9450 ny         1 160      -0.656800
     13 C16          1.9050    -0.7890    -2.0730 c3         1 160       0.117800
     14 C15          0.5690    -1.4980    -1.9570 c3         1 160      -0.081300
     15 S14         -0.3830    -1.1050    -3.3920 ss         1 160      -0.111100
     16 S13         -0.7840    -2.8870    -4.3980 ss         1 160      -0.108100
     17 C12          0.3560    -3.0500    -5.7430 c3         1 160       0.001000
     18 C8           1.5680    -3.8170    -5.3880 ca         1 160      -0.100300
     19 C9           1.6100    -5.2130    -5.5610 ca         1 160      -0.021000
     20 C10          2.7460    -5.9280    -5.1940 ca         1 160      -0.142000
     21 C11          3.8390    -5.2710    -4.6310 ca         1 160       0.031000
     22 C7           2.6850    -3.1690    -4.8700 ca         1 160      -0.027000
     23 C6           3.8230    -3.8800    -4.4480 ca         1 160      -0.463500
     24 S5           5.0610    -3.0680    -3.7520 sy         1 160       1.715800
     25 O27          4.5890    -1.9520    -3.0670 o          1 160      -0.655800
     26 O28          6.2140    -3.0060    -4.4790 o          1 160      -0.655800
     27 N4           4.7040    -7.1360    -1.7120 n8         1 160      -0.910800
     28 C3           5.9830    -6.6570    -1.2260 c3         1 160       0.068500
     29 C2           6.7320    -7.6340    -0.3050 c          1 160       0.525100
     30 O26          6.1090    -8.3950     0.4390 o          1 160      -0.509100
     31 C1           8.2170    -7.5980    -0.3970 c3         1 160      -0.201100
     32 C29          5.8320    -5.3410    -0.4460 c3         1 160      -0.124400
     33 C30          5.1110    -4.3010    -1.2410 c          1 160       0.781100
     34 O31          5.5500    -4.1170    -2.4980 os         1 160      -0.592800
     35 O32          4.1820    -3.5660    -0.8720 o          1 160      -0.651000
     36 H251         3.2140    -1.0280     7.2690 h1         1 160       0.129700
     37 H252         2.3920     0.1550     6.2160 h1         1 160       0.129700
     38 H253         2.4190    -1.5820     5.7750 h1         1 160       0.129700
     39 H22          4.4310    -2.7990     3.6480 ha         1 160       0.200000
     40 H23          3.6790    -2.7030     1.1410 ha         1 160       0.184000
     41 H17          3.8080    -1.1170    -1.3250 hn         1 160       0.489800
     42 H161         2.4380    -1.1160    -3.0150 hx         1 160       0.122200
     43 H162         1.7440     0.3290    -2.1320 hx         1 160       0.122200
     44 H151         0.6880    -2.6020    -1.8290 h1         1 160       0.101200
     45 H152        -0.0130    -1.1110    -1.0800 h1         1 160       0.101200
     46 H121         0.6230    -2.0540    -6.1770 h1         1 160       0.110700
     47 H122        -0.2530    -3.5990    -6.5150 h1         1 160       0.110700
     48 H9           0.7390    -5.7380    -5.9880 ha         1 160       0.161000
     49 H10          2.7800    -7.0200    -5.3410 ha         1 160       0.165000
     50 H11          4.7210    -5.8530    -4.3060 ha         1 160       0.165000
     51 H7           2.6810    -2.0670    -4.7900 ha         1 160       0.141000
     52 H4           4.1200    -7.4150    -0.9440 hn         1 160       0.367800
     53 H3           6.6320    -6.4530    -2.1310 h1         1 160       0.093700
     54 H11A         8.5850    -6.5440    -0.4180 hc         1 160       0.076367
     55 H12          8.6810    -8.1320     0.4700 hc         1 160       0.076367
     56 H13          8.5410    -8.1070    -1.3400 hc         1 160       0.076367
     57 H291         5.2680    -5.5100     0.5100 hc         1 160       0.097200
     58 H292         6.8550    -4.9470    -0.2020 hc         1 160       0.097200
     59 H172         2.6420    -2.0160    -0.5650 hn         1 160       0.489800
     60 H42          4.8430    -7.9290    -2.3100 hn         1 160       0.367800
@<TRIPOS>BOND
     1     1     2 2   
     2     2     3 1   
     3     2    12 1   
     4     3     4 1   
     5     3    11 2   
     6     4     5 1   
     7     5     6 1   
     8     5    10 2   
     9     6     7 2   
    10     6     8 2   
    11     6     9 1   
    12     9    36 1   
    13     9    37 1   
    14     9    38 1   
    15    10    11 1   
    16    10    39 1   
    17    11    40 1   
    18    12    13 1   
    19    12    41 1   
    20    12    59 1   
    21    13    14 1   
    22    13    42 1   
    23    13    43 1   
    24    14    15 1   
    25    14    44 1   
    26    14    45 1   
    27    15    16 1   
    28    16    17 1   
    29    17    18 1   
    30    17    46 1   
    31    17    47 1   
    32    18    19 ar  
    33    18    22 ar  
    34    19    20 ar  
    35    19    48 1   
    36    20    21 ar  
    37    20    49 1   
    38    21    23 ar  
    39    21    50 1   
    40    22    23 ar  
    41    22    51 1   
    42    23    24 1   
    43    24    25 2   
    44    24    26 2   
    45    24    34 1   
    46    27    28 1   
    47    27    52 1   
    48    27    60 1   
    49    28    29 1   
    50    28    32 1   
    51    28    53 1   
    52    29    30 2   
    53    29    31 1   
    54    31    54 1   
    55    31    55 1   
    56    31    56 1   
    57    32    33 1   
    58    32    57 1   
    59    32    58 1   
    60    33    34 1   
    61    33    35 2   
@<TRIPOS>SUBSTRUCTURE
     1 160         1 TEMP              0 ****  ****    0 ROOT
