@<TRIPOS>MOLECULE
molecule
   58    59     1     0     0
SMALL
bcc


@<TRIPOS>ATOM
      1 O35          0.0000     0.0000     0.0000 o          1 160      -0.588100
      2 C18          1.2170     0.0000     0.0000 c          1 160       0.706700
      3 C19          1.9490     0.0000     1.2700 cc         1 160      -0.055700
      4 S20          3.7110     0.0010     1.5520 ss         1 160      -0.012800
      5 C21          3.6970    -0.0010     3.2860 cc         1 160      -0.248600
      6 S24          5.0690    -0.0010     4.3920 sy         1 160       1.222300
      7 O33          4.5330     0.6080     5.5580 o          1 160      -0.608800
      8 O34          6.0940     0.6120     3.6220 o          1 160      -0.608800
      9 C25          5.3910    -1.7680     4.6490 c3         1 160      -0.223300
     10 C22          2.3710    -0.0020     3.5850 cd         1 160      -0.063000
     11 C23          1.4540     0.0040     2.5650 cd         1 160      -0.139000
     12 N17          1.8920     0.0010    -1.1660 ns         1 160      -0.576900
     13 C16          1.1600     0.0010    -2.4360 c3         1 160       0.111000
     14 C15          2.1550     0.0020    -3.5980 c3         1 160      -0.043300
     15 S14          1.2490     0.0020    -5.1690 ss         1 160      -0.104100
     16 S13          0.4720     1.9000    -5.1320 ss         1 160      -0.209100
     17 C12          1.8700     2.8260    -5.8230 c3         1 160       0.057000
     18 C8           2.0190     2.4930    -7.2860 ca         1 160      -0.130300
     19 C9           1.3510     3.2420    -8.2370 ca         1 160      -0.068000
     20 C10          1.4880     2.9360    -9.5780 ca         1 160      -0.156000
     21 C11          2.2930     1.8830    -9.9690 ca         1 160      -0.008000
     22 C7           2.8210     1.4370    -7.6760 ca         1 160      -0.018000
     23 C6           2.9620     1.1350    -9.0170 ca         1 160      -0.303500
     24 S5           3.9880    -0.2080    -9.5150 sy         1 160       1.425200
     25 O27          4.0830    -1.0620    -8.3830 o          1 160      -0.629300
     26 O28          3.5220    -0.5950   -10.8010 o          1 160      -0.629300
     27 N4           5.5120     0.3950    -9.7520 n7         1 160      -0.855100
     28 C3           6.2690     0.9390    -8.6210 c3         1 160       0.167500
     29 C2           6.0770     2.4320    -8.5600 c          1 160       0.532100
     30 O26          5.6160     3.0210    -9.5090 o          1 160      -0.547100
     31 C1           6.4600     3.1910    -7.3150 c3         1 160      -0.196100
     32 C29          7.7550     0.6230    -8.8040 c3         1 160      -0.184400
     33 C30          7.9630    -0.8690    -8.7420 c          1 160       0.886600
     34 O31          9.1960    -1.3810    -8.8780 o          1 160      -0.834300
     35 O32          7.0190    -1.6040    -8.5710 o          1 160      -0.834300
     36 H251         4.4890    -2.2520     5.0030 h1         1 160       0.100700
     37 H252         5.7000    -2.2190     3.7140 h1         1 160       0.100700
     38 H253         6.1780    -1.8880     5.3850 h1         1 160       0.100700
     39 H22          2.0430    -0.0020     4.6170 ha         1 160       0.158000
     40 H23          0.3890     0.0040     2.7630 ha         1 160       0.170000
     41 H17          2.8930     0.0140    -1.1650 hn         1 160       0.317500
     42 H161         0.5380    -0.8840    -2.4940 h1         1 160       0.070200
     43 H162         0.5370     0.8850    -2.4940 h1         1 160       0.070200
     44 H151         2.7780    -0.8820    -3.5410 h1         1 160       0.082200
     45 H152         2.7770     0.8870    -3.5400 h1         1 160       0.082200
     46 H121         2.7780     2.5570    -5.2970 h1         1 160       0.076700
     47 H122         1.6900     3.8890    -5.7120 h1         1 160       0.076700
     48 H9           0.7200     4.0670    -7.9310 ha         1 160       0.123000
     49 H10          0.9650     3.5220   -10.3230 ha         1 160       0.128000
     50 H11          2.4020     1.6460   -11.0200 ha         1 160       0.152000
     51 H7           3.3440     0.8510    -6.9300 ha         1 160       0.158000
     52 H4           5.9080     0.4060   -10.6710 hn         1 160       0.460800
     53 H3           5.9140     0.4910    -7.7010 h1         1 160       0.094700
     54 H11A         7.4860     3.5280    -7.3990 hc         1 160       0.053367
     55 H12          5.8060     4.0470    -7.1990 hc         1 160       0.053367
     56 H13          6.3620     2.5420    -6.4530 hc         1 160       0.053367
     57 H291         8.3250     1.0990    -8.0150 hc         1 160       0.042200
     58 H292         8.0880     0.9950    -9.7650 hc         1 160       0.042200
@<TRIPOS>BOND
     1     1     2 2
     2     2     3 1
     3     2    12 1
     4     3     4 1
     5     3    11 2
     6     4     5 1
     7     5     6 1
     8     5    10 2
     9     6     7 2
    10     6     8 2
    11     6     9 1
    12     9    36 1
    13     9    37 1
    14     9    38 1
    15    10    11 1
    16    10    39 1
    17    11    40 1
    18    12    13 1
    19    12    41 1
    20    13    14 1
    21    13    42 1
    22    13    43 1
    23    14    15 1
    24    14    44 1
    25    14    45 1
    26    15    16 1
    27    16    17 1
    28    17    18 1
    29    17    46 1
    30    17    47 1
    31    18    19 ar
    32    18    22 ar
    33    19    20 ar
    34    19    48 1
    35    20    21 ar
    36    20    49 1
    37    21    23 ar
    38    21    50 1
    39    22    23 ar
    40    22    51 1
    41    23    24 1
    42    24    25 2
    43    24    26 2
    44    24    27 1
    45    27    28 1
    46    27    52 1
    47    28    29 1
    48    28    32 1
    49    28    53 1
    50    29    30 2
    51    29    31 1
    52    31    54 1
    53    31    55 1
    54    31    56 1
    55    32    33 1
    56    32    57 1
    57    32    58 1
    58    33    34 1
    59    33    35 1
@<TRIPOS>SUBSTRUCTURE
     1 160         1 TEMP              0 ****  ****    0 ROOT
