@<TRIPOS>MOLECULE
molecule
   52    53     1     0     0
SMALL
bcc


@<TRIPOS>ATOM
      1 C1           0.0000     0.0000     0.0000 c3         1 161      -0.202100
      2 C2           1.5000     0.0000     0.0000 c          1 161       0.545100
      3 O24          2.0890     0.0920    -1.0810 o          1 161      -0.519100
      4 C3           2.3070     0.0000     1.3000 c3         1 161       0.110500
      5 C25          3.5730    -0.8400     1.2310 c3         1 161      -0.182400
      6 C26          4.5190    -0.4830     2.1650 c          1 161       0.885600
      7 O28          4.4780     0.6300     2.6900 o          1 161      -0.556300
      8 O27          5.4190    -1.2420     2.5050 o          1 161      -0.556300
      9 N4           1.5800    -0.4030     2.4910 ny         1 161      -0.934800
     10 C5           1.1470     0.4930     3.3810 c          1 161       0.599700
     11 O29          1.1030     1.6770     3.0800 o          1 161      -0.583100
     12 C6           0.7570     0.0770     4.7710 ca         1 161      -0.132600
     13 C7           0.6750    -1.2670     5.1430 ca         1 161      -0.088500
     14 C8           0.3300    -1.6700     6.4350 ca         1 161      -0.121500
     15 C11          0.5020     1.0690     5.7000 ca         1 161      -0.088500
     16 C10          0.1640     0.6810     6.9940 ca         1 161      -0.121500
     17 C9           0.0970    -0.6610     7.3830 ca         1 161      -0.124300
     18 C12         -0.2890    -1.0330     8.8040 c3         1 161       0.181100
     19 N13          0.8300    -0.6200     9.6230 ny         1 161      -0.684900
     20 S14          0.5630    -0.5400    11.3080 sy         1 161       1.560200
     21 O30          1.8760    -0.4220    11.9450 o          1 161      -0.584800
     22 O31         -0.4840     0.4970    11.4640 o          1 161      -0.584800
     23 C15         -0.0750    -2.0950    11.7400 ca         1 161      -0.661500
     24 C16          0.7800    -3.1810    11.6160 ca         1 161       0.029000
     25 C20         -1.3860    -2.2470    12.1680 ca         1 161       0.068000
     26 C19         -1.8570    -3.5160    12.5130 ca         1 161      -0.271000
     27 C18         -1.0360    -4.6380    12.4270 ca         1 161       0.286100
     28 O23         -1.4110    -5.7860    12.7500 oh         1 161      -0.409100
     29 C17          0.3320    -4.4680    11.9410 ca         1 161      -0.193600
     30 C21          1.2220    -5.6620    11.8540 c          1 161       0.942200
     31 O32          0.7820    -6.7630    12.2170 o          1 161      -0.784300
     32 O22          2.3910    -5.5050    11.4680 o          1 161      -0.784300
     33 H11A        -0.3610    -0.9540     0.3650 hc         1 161       0.074367
     34 H12         -0.3610     0.7930     0.6430 hc         1 161       0.074367
     35 H13A        -0.3610     0.1610    -1.0090 hc         1 161       0.074367
     36 H3           2.6230     1.0230     1.4630 hx         1 161       0.120700
     37 H251         3.3080    -1.8790     1.3860 hc         1 161       0.086200
     38 H252         4.0040    -0.7360     0.2430 hc         1 161       0.086200
     39 H4           0.7720    -0.9040     2.1760 hn         1 161       0.435800
     40 H7           0.8880    -2.0260     4.4010 ha         1 161       0.157000
     41 H8          -0.0430    -2.6720     6.6090 ha         1 161       0.169500
     42 H11          0.3080     2.0830     5.3710 ha         1 161       0.157000
     43 H10         -0.0560     1.4470     7.7270 ha         1 161       0.169500
     44 H121        -0.4380    -2.1030     8.8840 hx         1 161       0.076700
     45 H122        -1.1870    -0.5040     9.1000 hx         1 161       0.076700
     46 H13          1.1190     0.2870     9.3140 hn         1 161       0.429300
     47 H16          1.7950    -3.0330    11.2680 ha         1 161       0.175000
     48 H20         -2.0040    -1.3740    12.3400 ha         1 161       0.147000
     49 H19         -2.8790    -3.6300    12.8550 ha         1 161       0.154000
     50 H23         -1.8800    -5.7450    13.5670 ho         1 161       0.431000
     51 H42          2.1790    -1.0290     2.9930 hn         1 161       0.435800
     52 H132         1.5780    -1.2670     9.4730 hn         1 161       0.429300
@<TRIPOS>BOND
     1     1     2 1   
     2     1    33 1   
     3     1    34 1   
     4     1    35 1   
     5     2     3 2   
     6     2     4 1   
     7     4     5 1   
     8     4     9 1   
     9     4    36 1   
    10     5     6 1   
    11     5    37 1   
    12     5    38 1   
    13     6     7 1   
    14     6     8 1   
    15     9    10 1   
    16     9    39 1   
    17    10    11 2   
    18    10    12 1   
    19    12    13 ar  
    20    12    15 ar  
    21    13    14 ar  
    22    13    40 1   
    23    14    17 ar  
    24    14    41 1   
    25    15    16 ar  
    26    15    42 1   
    27    16    17 ar  
    28    16    43 1   
    29    17    18 1   
    30    18    19 1   
    31    18    44 1   
    32    18    45 1   
    33    19    20 1   
    34    19    46 1   
    35    20    21 2   
    36    20    22 2   
    37    20    23 1   
    38    23    24 ar  
    39    23    25 ar  
    40    24    29 ar  
    41    24    47 1   
    42    25    26 ar  
    43    25    48 1   
    44    26    27 ar  
    45    26    49 1   
    46    27    28 1   
    47    27    29 ar  
    48    28    50 1   
    49    29    30 1   
    50    30    31 1   
    51    30    32 1   
    52    51     9 1   
    53    52    19 1   
@<TRIPOS>SUBSTRUCTURE
     1 161         1 TEMP              0 ****  ****    0 ROOT
