@<TRIPOS>MOLECULE
molecule
   50    51     1     0     0
SMALL
bcc


@<TRIPOS>ATOM
      1 C1           0.0000     0.0000     0.0000 c3         1 161      -0.196100
      2 C2           1.5080     0.0000     0.0000 c          1 161       0.551100
      3 O24          2.1110     0.0000    -1.0460 o          1 161      -0.553100
      4 C3           2.2610     0.0000     1.3050 c3         1 161       0.043700
      5 C25          2.1920     1.3930     1.9340 c3         1 161      -0.194400
      6 C26          2.8400     1.3620     3.2940 c          1 161       0.885600
      7 O28          2.8960     2.4800     4.0360 o          1 161      -0.838300
      8 O27          3.3080     0.3310     3.7180 o          1 161      -0.838300
      9 N4           3.6600    -0.3580     1.0600 ns         1 161      -0.521900
     10 C5           4.0240    -1.6540     0.9980 c          1 161       0.686700
     11 O29          3.1910    -2.5270     1.1460 o          1 161      -0.643100
     12 C6           5.4360    -2.0140     0.7520 ca         1 161      -0.121600
     13 C7           5.8160    -3.3560     0.6870 ca         1 161      -0.091000
     14 C8           7.1360    -3.6850     0.4560 ca         1 161      -0.129000
     15 C11          6.3950    -1.0140     0.5760 ca         1 161      -0.091000
     16 C10          7.7120    -1.3580     0.3520 ca         1 161      -0.129000
     17 C9           8.0820    -2.6900     0.2890 ca         1 161      -0.089300
     18 C12          9.5220    -3.0580     0.0360 c3         1 161       0.278100
     19 N13          9.7500    -3.1780    -1.4050 n7         1 161      -0.915100
     20 S14         11.2950    -3.2040    -2.0000 sy         1 161       1.426200
     21 O30         11.9700    -2.1250    -1.3680 o          1 161      -0.657300
     22 O31         11.1650    -3.3850    -3.4040 o          1 161      -0.657300
     23 C15         12.0660    -4.6700    -1.3980 ca         1 161      -0.362500
     24 C16         12.7520    -4.6420    -0.2030 ca         1 161       0.023000
     25 C20         11.9850    -5.8430    -2.1310 ca         1 161      -0.030000
     26 C19         12.5850    -6.9970    -1.6700 ca         1 161      -0.249000
     27 C18         13.2760    -6.9900    -0.4660 ca         1 161       0.183100
     28 O23         13.8660    -8.1230    -0.0130 oh         1 161      -0.466100
     29 C17         13.3600    -5.8050     0.2780 ca         1 161      -0.143600
     30 C21         14.0910    -5.7840     1.5580 c          1 161       0.882200
     31 O32         14.1690    -4.6430     2.2700 o          1 161      -0.825300
     32 O22         14.6220    -6.7970     1.9710 o          1 161      -0.825300
     33 H11A        -0.3610    -0.6720     0.7690 hc         1 161       0.051033
     34 H12         -0.3610    -0.3300    -0.9660 hc         1 161       0.051033
     35 H13A        -0.3610     1.0020     0.1970 hc         1 161       0.051033
     36 H3           1.8160    -0.7220     1.9780 h1         1 161       0.108700
     37 H251         1.1570     1.6940     2.0330 hc         1 161       0.039700
     38 H252         2.7150     2.1010     1.3010 hc         1 161       0.039700
     39 H4           4.3420     0.3600     0.9140 hn         1 161       0.321500
     40 H7           5.0770    -4.1370     0.8180 ha         1 161       0.143000
     41 H8           7.4330    -4.7260     0.4050 ha         1 161       0.133000
     42 H11          6.1060     0.0290     0.6250 ha         1 161       0.143000
     43 H10          8.4570    -0.5830     0.2170 ha         1 161       0.133000
     44 H121        10.1670    -2.2870     0.4410 h1         1 161       0.062700
     45 H122         9.7430    -4.0030     0.5170 h1         1 161       0.062700
     46 H13          8.9720    -3.2320    -2.0320 hn         1 161       0.448800
     47 H16         12.8130    -3.7230     0.3660 ha         1 161       0.181000
     48 H20         11.4480    -5.8540    -3.0720 ha         1 161       0.127000
     49 H19         12.5180    -7.9100    -2.2490 ha         1 161       0.113000
     50 H23         14.4100    -8.4880    -0.6920 ho         1 161       0.397000
@<TRIPOS>BOND
     1     1     2 1
     2     1    33 1
     3     1    34 1
     4     1    35 1
     5     2     3 2
     6     2     4 1
     7     4     5 1
     8     4     9 1
     9     4    36 1
    10     5     6 1
    11     5    37 1
    12     5    38 1
    13     6     7 1
    14     6     8 1
    15     9    10 1
    16     9    39 1
    17    10    11 2
    18    10    12 1
    19    12    13 ar
    20    12    15 ar
    21    13    14 ar
    22    13    40 1
    23    14    17 ar
    24    14    41 1
    25    15    16 ar
    26    15    42 1
    27    16    17 ar
    28    16    43 1
    29    17    18 1
    30    18    19 1
    31    18    44 1
    32    18    45 1
    33    19    20 1
    34    19    46 1
    35    20    21 2
    36    20    22 2
    37    20    23 1
    38    23    24 ar
    39    23    25 ar
    40    24    29 ar
    41    24    47 1
    42    25    26 ar
    43    25    48 1
    44    26    27 ar
    45    26    49 1
    46    27    28 1
    47    27    29 ar
    48    28    50 1
    49    29    30 1
    50    30    31 1
    51    30    32 1
@<TRIPOS>SUBSTRUCTURE
     1 161         1 TEMP              0 ****  ****    0 ROOT
