@<TRIPOS>MOLECULE
164
   27    27     1     0     0
SMALL
bcc


@<TRIPOS>ATOM
      1 O1           0.6760    -0.9580     0.3870 o          1 164      -0.837800
      2 C7           1.9080    -0.7180     0.4030 c          1 164       0.923600
      3 O2           2.7170    -1.0890    -0.5060 o          1 164      -0.837800
      4 C2           2.5480     0.0860     1.5720 c3         1 164      -0.187500
      5 C3           3.3570     1.2230     0.9220 c3         1 164       0.204300
      6 C4           3.6190     2.3940     1.8100 c2         1 164      -0.181200
      7 C5           2.8010     2.6760     2.8360 ce         1 164      -0.131000
      8 C6           1.7300     1.7770     3.2000 ce         1 164      -0.188000
      9 O9           4.6110     0.7400     0.4480 oh         1 164      -0.659800
     10 C1           1.6180     0.5560     2.6310 cf         1 164      -0.084400
     11 C8           0.6180    -0.4100     3.1740 c          1 164       0.611300
     12 O3           0.9930    -1.4720     3.6920 o          1 164      -0.584100
     13 C9          -0.8160     0.0250     3.0980 c3         1 164      -0.166400
     14 C10         -1.7040    -0.6140     4.1400 c3         1 164      -0.177400
     15 C11         -2.8140     0.3170     4.6470 c          1 164       0.903600
     16 O5          -2.5890     1.5590     4.7630 o          1 164      -0.868800
     17 O4          -3.9230    -0.2070     4.9720 o          1 164      -0.868800
     18 H2           3.2630    -0.6340     2.0680 hc         1 164       0.071700
     19 H3           2.7730     1.6050     0.0280 h1         1 164       0.037700
     20 H4           4.4830     3.0160     1.5430 ha         1 164       0.106000
     21 H5           2.9320     3.5780     3.4520 ha         1 164       0.097000
     22 H6           1.0330     2.1090     3.9860 ha         1 164       0.137000
     23 HO9          4.4040    -0.0600    -0.0670 ho         1 164       0.448000
     24 H91         -0.8710     1.1440     3.2080 hc         1 164       0.086700
     25 H92         -1.1650    -0.2330     2.0600 hc         1 164       0.086700
     26 H101        -2.1700    -1.5450     3.7300 hc         1 164       0.029200
     27 H102        -1.0930    -0.9130     5.0310 hc         1 164       0.029200
@<TRIPOS>BOND
     1     1     2 1   
     2     2     3 1   
     3     2     4 1   
     4     4     5 1   
     5     4    10 1   
     6     4    18 1   
     7     5     6 1   
     8     5     9 1   
     9     5    19 1   
    10     6     7 2   
    11     6    20 1   
    12     7     8 1   
    13     7    21 1   
    14     8    10 2   
    15     8    22 1   
    16     9    23 1   
    17    10    11 1   
    18    11    12 2   
    19    11    13 1   
    20    13    14 1   
    21    13    24 1   
    22    13    25 1   
    23    14    15 1   
    24    14    26 1   
    25    14    27 1   
    26    15    16 1   
    27    15    17 1   
@<TRIPOS>SUBSTRUCTURE
     1 164         1 TEMP              0 ****  ****    0 ROOT
