@<TRIPOS>MOLECULE
164
   27    27     1     0     0
SMALL
bcc


@<TRIPOS>ATOM
      1 O1         -0.2140   -0.7930   -0.3810 o         1 164     -0.830800
      2 C7          0.9470   -0.2980   -0.4110 c         1 164      0.928600
      3 O2          1.5230    0.0980   -1.4580 o         1 164     -0.830800
      4 C2          1.7140   -0.0910    0.9460 c3        1 164     -0.162500
      5 C3          0.6920    0.0780    2.0780 c3        1 164      0.185300
      6 C4          0.6190   -1.0350    3.0720 c2        1 164     -0.218200
      7 C5          1.4660   -2.0750    3.0570 ce        1 164     -0.095000
      8 C6          2.5570   -2.1250    2.1160 ce        1 164     -0.188000
      9 O9          1.0050    1.3160    2.7350 oh        1 164     -0.611800
     10 C1          2.7040   -1.1730    1.1660 cf        1 164     -0.070400
     11 C8          3.9460   -1.1960    0.3340 c         1 164      0.591300
     12 O3          4.2620   -2.2120   -0.3010 o         1 164     -0.574100
     13 C9          4.7960    0.0390    0.4010 c3        1 164     -0.165400
     14 C10         6.2260   -0.1940   -0.0270 c3        1 164     -0.178400
     15 C11         7.2180    0.7910    0.6070 c         1 164      0.904600
     16 O5          8.2080    1.1650   -0.0930 o         1 164     -0.866300
     17 O4          7.0480    1.1670    1.8050 o         1 164     -0.866300
     18 H2          2.2730    0.8840    0.8350 hc        1 164      0.090700
     19 H3         -0.3360    0.1870    1.6110 h1        1 164      0.071700
     20 H4         -0.1920   -0.9590    3.8100 ha        1 164      0.085000
     21 H5          1.3720   -2.9090    3.7680 ha        1 164      0.090000
     22 H6          3.2820   -2.9450    2.2140 ha        1 164      0.117000
     23 HO9         0.4480    1.3620    3.5180 ho        1 164      0.365000
     24 H91         4.3120    0.8120   -0.2560 hc        1 164      0.084200
     25 H92         4.7890    0.4360    1.4540 hc        1 164      0.084200
     26 H101        6.5470   -1.2250    0.2740 hc        1 164      0.029200
     27 H102        6.3080   -0.1330   -1.1410 hc        1 164      0.029200
@<TRIPOS>BOND
     1    1    2 1   
     2    2    3 1   
     3    2    4 1   
     4    4    5 1   
     5    4   10 1   
     6    4   18 1   
     7    5    6 1   
     8    5    9 1   
     9    5   19 1   
    10    6    7 2   
    11    6   20 1   
    12    7    8 1   
    13    7   21 1   
    14    8   10 2   
    15    8   22 1   
    16    9   23 1   
    17   10   11 1   
    18   11   12 2   
    19   11   13 1   
    20   13   14 1   
    21   13   24 1   
    22   13   25 1   
    23   14   15 1   
    24   14   26 1   
    25   14   27 1   
    26   15   16 1   
    27   15   17 1   
@<TRIPOS>SUBSTRUCTURE
     1 164         1 TEMP              0 ****  ****    0 ROOT
