@<TRIPOS>MOLECULE
molecule
   27    27     1     0     0
SMALL
bcc


@<TRIPOS>ATOM
      1 O1           0.0000     0.0000     0.0000 o          1 164      -0.842300
      2 C7           1.2080     0.0000     0.0000 c          1 164       0.904600
      3 O2           1.8800    -0.0010    -1.1620 o          1 164      -0.842300
      4 C2           1.9610     0.0000     1.3060 c3         1 164      -0.142500
      5 C3           0.9640     0.0150     2.4630 c3         1 164       0.193300
      6 C4           0.2530    -1.3090     2.5460 c2         1 164      -0.151200
      7 C5           0.8970    -2.4410     2.2500 ce         1 164      -0.125000
      8 C6           2.2980    -2.3940     1.8400 ce         1 164      -0.123000
      9 O9           1.6610     0.2560     3.6860 oh         1 164      -0.615800
     10 C1           2.8240    -1.2270     1.3840 cf         1 164      -0.112400
     11 C8           4.1730    -1.1680     0.9890 c          1 164       0.587300
     12 O3           4.8690    -2.1620     1.0550 o          1 164      -0.600100
     13 C9           4.7540     0.1260     0.4850 c3         1 164      -0.165400
     14 C10          6.2270    -0.0800     0.1260 c3         1 164      -0.169400
     15 C11          6.8090     1.2140    -0.3790 c          1 164       0.891600
     16 O5           8.0950     1.2710    -0.7560 o          1 164      -0.872300
     17 O4           6.1170     2.2020    -0.4450 o          1 164      -0.872300
     18 H2           2.5880     0.8820     1.3640 hc         1 164       0.082700
     19 H3           0.2370     0.8000     2.2980 h1         1 164       0.046700
     20 H4          -0.7860    -1.3440     2.8510 ha         1 164       0.096000
     21 H5           0.4060    -3.3960     2.3920 ha         1 164       0.093000
     22 H6           2.9440    -3.2460     2.0180 ha         1 164       0.126000
     23 HO9          1.1900     0.8940     4.1960 ho         1 164       0.369000
     24 H91          4.6730     0.8830     1.2550 hc         1 164       0.090700
     25 H92          4.2100     0.4470    -0.3960 hc         1 164       0.090700
     26 H101         6.3080    -0.8380    -0.6440 hc         1 164       0.031700
     27 H102         6.7710    -0.4010     1.0060 hc         1 164       0.031700
@<TRIPOS>BOND
     1     1     2 1
     2     2     3 1
     3     2     4 1
     4     4     5 1
     5     4    10 1
     6     4    18 1
     7     5     6 1
     8     5     9 1
     9     5    19 1
    10     6     7 2
    11     6    20 1
    12     7     8 1
    13     7    21 1
    14     8    10 2
    15     8    22 1
    16     9    23 1
    17    10    11 1
    18    11    12 2
    19    11    13 1
    20    13    14 1
    21    13    24 1
    22    13    25 1
    23    14    15 1
    24    14    26 1
    25    14    27 1
    26    15    16 1
    27    15    17 1
@<TRIPOS>SUBSTRUCTURE
     1 164         1 TEMP              0 ****  ****    0 ROOT
