@<TRIPOS>MOLECULE
molecule
   54    56     1     0     0
SMALL
bcc


@<TRIPOS>ATOM
      1 C1           0.0000     0.0000     0.0000 c3         1 166      -0.057400
      2 C2           1.5300     0.0000     0.0000 c3         1 166      -0.080400
      3 C3           2.0400     0.0000     1.4430 c3         1 166      -0.069400
      4 C4           3.5690     0.0010     1.4430 c3         1 166      -0.119700
      5 C5           4.0710    -0.0010     2.8650 c2         1 166       0.465200
      6 N6           5.4180     0.0010     3.1150 nz         1 166      -0.807600
      7 N7           3.2320    -0.0020     3.8470 n2         1 166      -0.659100
      8 O8          -0.3410    -2.3250    -1.7760 o          1 166      -0.838800
      9 O8A          0.8150    -1.1040    -3.2080 o          1 166      -0.838800
     10 O9          -3.8240    -0.7040    -2.9620 oh         1 166      -0.604800
     11 C10         -2.0390     0.0000    -1.4420 c3         1 166      -0.004400
     12 C11         -2.9760     2.1390    -1.8450 ca         1 166      -0.073300
     13 C12         -2.5650     1.2830    -0.8370 ca         1 166      -0.068300
     14 C13         -2.5740    -0.0150    -2.8900 c3         1 166       0.148100
     15 C14         -2.7530     1.4870    -3.1940 c3         1 166      -0.064100
     16 C36         -2.6750     1.6710     0.4830 ca         1 166      -0.106000
     17 C37         -3.1990     2.9190     0.8050 cp         1 166      -0.065000
     18 C38         -3.6110     3.7770    -0.2120 ca         1 166      -0.127000
     19 C39         -3.4970     3.3840    -1.5290 ca         1 166      -0.123000
     20 C43         -3.3170     3.3360     2.2240 cp         1 166      -0.020000
     21 C44         -4.4430     4.0340     2.6560 ca         1 166      -0.110500
     22 C45         -4.5510     4.4200     3.9740 ca         1 166      -0.154000
     23 C6          -3.5370     4.1130     4.8740 ca         1 166       0.091100
     24 C7          -2.4150     3.4180     4.4470 ca         1 166      -0.154000
     25 C8          -2.3040     3.0240     3.1290 ca         1 166      -0.110500
     26 O54         -3.6460     4.4940     6.1730 oh         1 166      -0.525100
     27 C16         -0.5100     0.0000    -1.4420 c3         1 166      -0.164700
     28 C15         -0.0050    -1.2280    -2.1540 c          1 166       0.880600
     29 H12         -0.3610    -0.8850     0.5110 hc         1 166       0.036700
     30 H11         -0.3610     0.8850     0.5110 hc         1 166       0.036700
     31 H22          1.8910    -0.8840    -0.5110 hc         1 166       0.063700
     32 H21          1.8910     0.8840    -0.5110 hc         1 166       0.063700
     33 H32          1.6790    -0.8850     1.9530 hc         1 166       0.058700
     34 H31          1.6780     0.8840     1.9540 hc         1 166       0.058700
     35 H42          3.9300     0.8860     0.9340 hc         1 166       0.084700
     36 H41          3.9300    -0.8830     0.9320 hc         1 166       0.084700
     37 H62          5.9080    -0.3290     2.3070 hn         1 166       0.459133
     38 H61          5.7170     0.9310     3.3300 hn         1 166       0.459133
     39 HN7          3.5640    -0.0020     4.7910 hn         1 166       0.419400
     40 H10         -2.4200    -0.8540    -0.8950 hc         1 166       0.089700
     41 H13         -1.8460    -0.4560    -3.5610 h1         1 166       0.090700
     42 H142        -1.8470     1.8770    -3.6410 hc         1 166       0.060200
     43 H141        -3.6280     1.6300    -3.8160 hc         1 166       0.060200
     44 H36         -2.3540     1.0010     1.2720 ha         1 166       0.129000
     45 H38         -4.0200     4.7510     0.0300 ha         1 166       0.123000
     46 H39         -3.8180     4.0510    -2.3200 ha         1 166       0.124000
     47 H44         -5.2340     4.2740     1.9550 ha         1 166       0.137500
     48 H45         -5.4260     4.9630     4.3100 ha         1 166       0.133000
     49 H7          -1.6270     3.1780     5.1510 ha         1 166       0.133000
     50 H8          -1.4280     2.4810     2.7970 ha         1 166       0.137500
     51 H54         -3.2690     5.3510     6.2830 ho         1 166       0.413000
     52 H16         -0.1500     0.8860    -1.9520 hc         1 166       0.050700
     53 H63          5.6140    -0.5990     3.8920 hn         1 166       0.459133
     54 H9          -3.8980    -1.1340    -3.7980 ho         1 166       0.399000
@<TRIPOS>BOND
     1     1     2 1
     2     1    27 1
     3     1    29 1
     4     1    30 1
     5     2     3 1
     6     2    31 1
     7     2    32 1
     8     3     4 1
     9     3    33 1
    10     3    34 1
    11     4     5 1
    12     4    35 1
    13     4    36 1
    14     5     6 1
    15     5     7 2
    16     6    37 1
    17     6    38 1
    18     7    39 1
    19     8    28 1
    20     9    28 1
    21    10    14 1
    22    10    54 1
    23    11    13 1
    24    11    14 1
    25    11    27 1
    26    11    40 1
    27    12    13 ar
    28    12    15 1
    29    12    19 ar
    30    13    16 ar
    31    14    15 1
    32    14    41 1
    33    15    42 1
    34    15    43 1
    35    16    17 ar
    36    16    44 1
    37    17    18 ar
    38    17    20 1
    39    18    19 ar
    40    18    45 1
    41    19    46 1
    42    20    21 ar
    43    20    25 ar
    44    21    22 ar
    45    21    47 1
    46    22    23 ar
    47    22    48 1
    48    23    24 ar
    49    23    26 1
    50    24    25 ar
    51    24    49 1
    52    25    50 1
    53    26    51 1
    54    27    28 1
    55    27    52 1
    56    53     6 1
@<TRIPOS>SUBSTRUCTURE
     1 166         1 TEMP              0 ****  ****    0 ROOT
