@<TRIPOS>MOLECULE
166
   54    56     1     0     0
SMALL
bcc


@<TRIPOS>ATOM
      1 C1           0.0990    -0.8390     0.0280 c3         1 166      -0.079400
      2 C2           0.3600    -0.0350     1.2840 c3         1 166      -0.087400
      3 C3           1.3320    -0.7280     2.2170 c3         1 166      -0.079400
      4 C4           2.7650    -0.5970     1.7460 c3         1 166      -0.125700
      5 C5           3.7160    -1.2600     2.7430 c2         1 166       0.601200
      6 N6           3.7690    -2.6680     2.6500 nv         1 166      -0.961800
      7 N7           4.4250    -0.5010     3.5210 n2         1 166      -0.834100
      8 O8          -0.2430     2.2520    -1.1910 o          1 166      -0.498000
      9 O8A          0.8570     0.8830    -2.4720 oh         1 166      -0.584100
     10 O9          -0.6130    -0.7330    -4.2090 oh         1 166      -0.610800
     11 C10         -1.3940    -1.0520    -1.9810 c3         1 166      -0.022400
     12 C11         -3.6270    -1.6010    -2.6790 ca         1 166      -0.078300
     13 C12         -2.7080    -1.6710    -1.6050 ca         1 166      -0.087300
     14 C13         -1.6790    -0.3650    -3.3490 c3         1 166       0.129100
     15 C14         -3.0380    -0.8970    -3.8510 c3         1 166      -0.068100
     16 C36         -3.0660    -2.2810    -0.4150 ca         1 166      -0.106000
     17 C37         -4.3530    -2.8390    -0.2860 cp         1 166      -0.028000
     18 C38         -5.2520    -2.7690    -1.3560 ca         1 166      -0.116000
     19 C39         -4.8940    -2.1480    -2.5570 ca         1 166      -0.114000
     20 C43         -4.7420    -3.4870     0.9650 cp         1 166      -0.078000
     21 C44         -5.4670    -4.6860     0.9450 ca         1 166      -0.081500
     22 C45         -5.8380    -5.3120     2.1320 ca         1 166      -0.185500
     23 C6          -5.4830    -4.7280     3.3560 ca         1 166       0.129100
     24 C7          -4.7590    -3.5240     3.3940 ca         1 166      -0.185500
     25 C8          -4.3940    -2.9170     2.1990 ca         1 166      -0.081500
     26 O54         -5.8120    -5.2850     4.5700 oh         1 166      -0.495100
     27 C16         -0.8410    -0.1020    -0.9230 c3         1 166      -0.151700
     28 C15         -0.0980     1.0730    -1.5170 c          1 166       0.626100
     29 H12         -0.3550    -1.8280     0.3000 hc         1 166       0.050200
     30 H11          1.0670    -1.0520    -0.5000 hc         1 166       0.050200
     31 H22         -0.6110     0.1240     1.8250 hc         1 166       0.057700
     32 H21          0.7520     0.9800     1.0050 hc         1 166       0.057700
     33 H32          1.2410    -0.2680     3.2370 hc         1 166       0.044200
     34 H31          1.0510    -1.8100     2.3120 hc         1 166       0.044200
     35 H42          2.8950    -1.0720     0.7380 hc         1 166       0.070200
     36 H41          3.0280     0.4890     1.6370 hc         1 166       0.070200
     37 H62          0.8590    -0.0430    -2.7630 ho         1 166       0.445000
     38 H61          2.9780    -3.0980     2.2330 hn         1 166       0.394300
     39 HN7          5.0400    -0.9590     4.1590 hn         1 166       0.380400
     40 H10         -0.6430    -1.8760    -2.1620 hc         1 166       0.086700
     41 H13         -1.7170     0.7530    -3.2440 h1         1 166       0.058700
     42 H142        -2.8870    -1.6030    -4.7080 hc         1 166       0.068200
     43 H141        -3.6920    -0.0590    -4.1970 hc         1 166       0.068200
     44 H36         -2.3610    -2.3400     0.4270 ha         1 166       0.138000
     45 H38         -6.2590    -3.2000    -1.2490 ha         1 166       0.138000
     46 H39         -5.6120    -2.0940    -3.3880 ha         1 166       0.138000
     47 H44         -5.7400    -5.1440    -0.0180 ha         1 166       0.138000
     48 H45         -6.4040    -6.2540     2.1100 ha         1 166       0.144500
     49 H7          -4.4950    -3.0800     4.3640 ha         1 166       0.144500
     50 H8          -3.8340    -1.9690     2.2220 ha         1 166       0.138000
     51 H54         -6.3130    -6.0960     4.4010 ho         1 166       0.421000
     52 H16         -1.7020     0.3230    -0.3310 hc         1 166       0.099700
     53 H63          4.1330    -3.1580     3.4330 hn         1 166       0.394300
     54 H9          -0.7240    -0.2340    -5.0270 ho         1 166       0.416000
@<TRIPOS>BOND
     1     1     2 1   
     2     1    27 1   
     3     1    29 1   
     4     1    30 1   
     5     2     3 1   
     6     2    31 1   
     7     2    32 1   
     8     3     4 1   
     9     3    33 1   
    10     3    34 1   
    11     4     5 1   
    12     4    35 1   
    13     4    36 1   
    14     5     6 1   
    15     5     7 2   
    16     6    38 1   
    17     6    53 1   
    18     7    39 1   
    19     8    28 2   
    20     9    28 1   
    21     9    37 1   
    22    10    14 1   
    23    10    54 1   
    24    11    13 1   
    25    11    14 1   
    26    11    27 1   
    27    11    40 1   
    28    12    13 ar  
    29    12    15 1   
    30    12    19 ar  
    31    13    16 ar  
    32    14    15 1   
    33    14    41 1   
    34    15    42 1   
    35    15    43 1   
    36    16    17 ar  
    37    16    44 1   
    38    17    18 ar  
    39    17    20 1   
    40    18    19 ar  
    41    18    45 1   
    42    19    46 1   
    43    20    21 ar  
    44    20    25 ar  
    45    21    22 ar  
    46    21    47 1   
    47    22    23 ar  
    48    22    48 1   
    49    23    24 ar  
    50    23    26 1   
    51    24    25 ar  
    52    24    49 1   
    53    25    50 1   
    54    26    51 1   
    55    27    28 1   
    56    27    52 1   
@<TRIPOS>SUBSTRUCTURE
     1 166         1 TEMP              0 ****  ****    0 ROOT
