@<TRIPOS>MOLECULE
167
   57    59     1     0     0
SMALL
bcc


@<TRIPOS>ATOM
      1 C1          -0.4680     0.7460    -1.0370 c3         1 167      -0.077400
      2 C2          -1.0760     0.6640     0.3470 c3         1 167      -0.101400
      3 C3          -2.5590     0.9730     0.3370 c3         1 167      -0.071400
      4 C4          -3.4180    -0.1720    -0.1590 c3         1 167      -0.115700
      5 C5          -3.4860    -1.3140     0.8580 c2         1 167       0.604200
      6 N6          -2.6640    -2.4230     0.5700 nv         1 167      -0.968800
      7 N7          -4.2270    -1.1490     1.9120 n2         1 167      -0.840100
      8 O8           2.4900     2.0390    -0.3240 o          1 167      -0.501000
      9 O8A          1.8190     0.6730     1.2240 oh         1 167      -0.587100
     10 O9           2.1800    -2.0650     0.9640 oh         1 167      -0.607800
     11 C10          1.1230    -1.2260    -1.0020 c3         1 167      -0.026400
     12 C11          2.1290    -2.8810    -2.4280 ca         1 167      -0.080300
     13 C12          1.0880    -1.9270    -2.3290 ca         1 167      -0.084300
     14 C13          2.4700    -1.6870    -0.3720 c3         1 167       0.130100
     15 C14          2.9830    -2.8790    -1.2080 c3         1 167      -0.068100
     16 C36          0.1930    -1.7720    -3.3760 ca         1 167      -0.119000
     17 C37          0.3340    -2.5670    -4.5190 ca         1 167      -0.118000
     18 C38          1.3580    -3.5160    -4.6180 cp         1 167      -0.032000
     19 C39          2.2680    -3.6720    -3.5550 ca         1 167      -0.102000
     20 C43          1.4890    -4.3410    -5.8190 cp         1 167      -0.011000
     21 C44          1.8070    -5.6970    -5.7050 ca         1 167      -0.146000
     22 C45          1.9300    -6.4780    -6.8680 ca         1 167       0.124100
     23 C24          1.7390    -5.9170    -8.1350 ca         1 167      -0.199000
     24 C25          1.4230    -4.5620    -8.2320 ca         1 167      -0.095000
     25 C6           1.2960    -3.7770    -7.0900 ca         1 167      -0.153000
     26 O54          2.2450    -7.8040    -6.6380 os         1 167      -0.327900
     27 C16          0.9870     0.2890    -1.1110 c3         1 167      -0.148700
     28 C15          1.8020     1.0450    -0.0870 c          1 167       0.628100
     29 C53          2.3740    -8.6270    -7.7910 c3         1 167       0.113700
     30 H12         -1.0720     0.1220    -1.7470 hc         1 167       0.053200
     31 H11         -0.5210     1.8080    -1.3970 hc         1 167       0.053200
     32 H22         -0.9080    -0.3530     0.7890 hc         1 167       0.056700
     33 H21         -0.5580     1.4040     1.0180 hc         1 167       0.056700
     34 H32         -2.8800     1.2510     1.3760 hc         1 167       0.057200
     35 H31         -2.7460     1.8650    -0.3190 hc         1 167       0.057200
     36 H42         -3.0330    -0.5430    -1.1440 hc         1 167       0.055200
     37 H41         -4.4620     0.2050    -0.3330 hc         1 167       0.055200
     38 H62         -2.8700    -3.2760     1.0330 hn         1 167       0.398800
     39 H61          1.2940    -0.1350     1.3520 ho         1 167       0.448000
     40 HN7         -4.2570    -1.9040     2.5640 hn         1 167       0.381400
     41 H10          0.2860    -1.6290    -0.3600 hc         1 167       0.093700
     42 H13          3.2280    -0.8570    -0.3800 h1         1 167       0.057700
     43 H142         4.0640    -2.7520    -1.4640 hc         1 167       0.068200
     44 H141         2.8650    -3.8340    -0.6350 hc         1 167       0.068200
     45 H36         -0.6190    -1.0340    -3.3280 ha         1 167       0.134000
     46 H37         -0.3780    -2.4470    -5.3510 ha         1 167       0.138000
     47 H39          3.0810    -4.4090    -3.6290 ha         1 167       0.144000
     48 H44          1.9560    -6.1650    -4.7210 ha         1 167       0.152000
     49 H24          1.8340    -6.5230    -9.0460 ha         1 167       0.139000
     50 H25          1.2740    -4.1110    -9.2250 ha         1 167       0.134000
     51 H6           1.0540    -2.7080    -7.1810 ha         1 167       0.137000
     52 H16          1.3880     0.6030    -2.1200 hc         1 167       0.095700
     53 H63         -2.3800    -2.5260    -0.3740 hn         1 167       0.398800
     54 H9           3.0240    -2.2330     1.3990 ho         1 167       0.415000
     55 H533         1.4120    -8.6670    -8.3570 h1         1 167       0.045033
     56 H532         3.2000    -8.2600    -8.4480 h1         1 167       0.045033
     57 H531         2.6240    -9.6330    -7.3670 h1         1 167       0.045033
@<TRIPOS>BOND
     1     1     2 1   
     2     1    27 1   
     3     1    30 1   
     4     1    31 1   
     5     2     3 1   
     6     2    32 1   
     7     2    33 1   
     8     3     4 1   
     9     3    34 1   
    10     3    35 1   
    11     4     5 1   
    12     4    36 1   
    13     4    37 1   
    14     5     6 1   
    15     5     7 2   
    16     6    38 1   
    17     6    53 1   
    18     7    40 1   
    19     8    28 2   
    20     9    28 1   
    21     9    39 1   
    22    10    14 1   
    23    10    54 1   
    24    11    13 1   
    25    11    14 1   
    26    11    27 1   
    27    11    41 1   
    28    12    13 ar  
    29    12    15 1   
    30    12    19 ar  
    31    13    16 ar  
    32    14    15 1   
    33    14    42 1   
    34    15    43 1   
    35    15    44 1   
    36    16    17 ar  
    37    16    45 1   
    38    17    18 ar  
    39    17    46 1   
    40    18    19 ar  
    41    18    20 1   
    42    19    47 1   
    43    20    21 ar  
    44    20    25 ar  
    45    21    22 ar  
    46    21    48 1   
    47    22    23 ar  
    48    22    26 1   
    49    23    24 ar  
    50    23    49 1   
    51    24    25 ar  
    52    24    50 1   
    53    25    51 1   
    54    26    29 1   
    55    27    28 1   
    56    27    52 1   
    57    29    55 1   
    58    29    56 1   
    59    29    57 1   
@<TRIPOS>SUBSTRUCTURE
     1 167         1 TEMP              0 ****  ****    0 ROOT
