@<TRIPOS>MOLECULE
167
   57    59     1     0     0
SMALL
bcc


@<TRIPOS>ATOM
      1 C1           0.0000     0.0000     0.0000 c3         1 167      -0.002400
      2 C2          -0.5100     1.2480     0.7210 c3         1 167      -0.081400
      3 C3          -2.0400     1.2480     0.7200 c3         1 167      -0.034400
      4 C4          -2.5510     2.4970     1.4420 c3         1 167      -0.076700
      5 C5          -4.0580     2.4960     1.4410 c2         1 167       0.115200
      6 N6          -4.7440     3.5230     2.0350 nz         1 167       0.193400
      7 N7          -4.7040     1.5260     0.8810 n2         1 167      -0.499100
      8 O8           2.7260    -0.9050     1.8160 o          1 167      -0.881300
      9 O8A          1.7060     1.0060     2.2480 o          1 167      -0.881300
     10 O9           4.1030    -2.5650    -0.7720 oh         1 167      -0.571800
     11 C10          2.0410    -1.2490    -0.7210 c3         1 167       0.011600
     12 C11          2.6130    -0.8550    -2.9860 ca         1 167      -0.028300
     13 C12          1.5760    -1.2490    -2.1620 ca         1 167      -0.078300
     14 C13          3.5810    -1.2360    -0.7930 c3         1 167       0.131100
     15 C14          3.8440    -0.5610    -2.1540 c3         1 167      -0.104100
     16 C36          0.3410    -1.5720    -2.7040 ca         1 167      -0.097000
     17 C37          0.1400    -1.5010    -4.0670 ca         1 167      -0.111000
     18 C38          1.1810    -1.1030    -4.9010 cp         1 167      -0.060000
     19 C39          2.4210    -0.7860    -4.3540 ca         1 167      -0.080000
     20 C43          0.9730    -1.0240    -6.3680 cp         1 167       0.026000
     21 C44          0.2170    -1.9950    -7.0200 ca         1 167      -0.142000
     22 C45          0.0290    -1.9190    -8.3900 ca         1 167       0.132100
     23 C24          0.5860    -0.8710    -9.1090 ca         1 167      -0.234000
     24 C25          1.3330     0.0970    -8.4630 ca         1 167      -0.058000
     25 C6           1.5280     0.0250    -7.0970 ca         1 167      -0.142000
     26 O54         -0.7040    -2.8670    -9.0300 os         1 167      -0.284900
     27 C16          1.5290     0.0000     0.0000 c3         1 167      -0.147700
     28 C15          2.0310     0.0000     1.4210 c          1 167       0.979600
     29 H12         -0.3610    -0.8850     0.5110 hc         1 167       0.005200
     30 H11         -0.3610    -0.0000    -1.0210 hc         1 167       0.005200
     31 H22         -0.1490     2.1330     0.2100 hc         1 167       0.070700
     32 H21         -0.1490     1.2480     1.7420 hc         1 167       0.070700
     33 H32         -2.4020     0.3640     1.2300 hc         1 167       0.011700
     34 H31         -2.4010     1.2490    -0.3010 hc         1 167       0.011700
     35 H42         -2.1900     3.3820     0.9320 hc         1 167       0.054700
     36 H41         -2.1900     2.4960     2.4630 hc         1 167       0.054700
     37 H62         -5.7270     3.3730     1.9290 hn         1 167       0.214133
     38 H61         -4.4900     4.3880     1.6010 hn         1 167       0.214133
     39 HN7         -4.2040     0.7750     0.4480 hn         1 167       0.399400
     40 H10          1.7160    -2.1650    -0.2440 hc         1 167       0.059700
     41 H13          3.8210    -0.5530     0.0140 h1         1 167       0.077700
     42 H142         4.0940     0.1310    -1.3590 hc         1 167       0.071200
     43 H141         4.7140    -1.0130    -2.6150 hc         1 167       0.071200
     44 H36         -0.4690    -1.8820    -2.0550 ha         1 167       0.099000
     45 H37         -0.8270    -1.7490    -4.4860 ha         1 167       0.100000
     46 H39          3.2340    -0.4760    -4.9990 ha         1 167       0.106000
     47 H44         -0.2180    -2.8120    -6.4570 ha         1 167       0.124000
     48 H24          0.4370    -0.8110   -10.1810 ha         1 167       0.129000
     49 H25          1.7650     0.9130    -9.0290 ha         1 167       0.097000
     50 H6           2.1140     0.7850    -6.5930 ha         1 167       0.113000
     51 H16          1.8900     0.8850    -0.5100 hc         1 167       0.030700
     52 C53         -0.7180    -2.5140   -10.4140 c3         1 167       0.216700
     53 H63         -4.5150     3.5580     3.0080 hn         1 167       0.214133
     54 H9           4.9330    -2.5700    -0.3240 ho         1 167       0.384000
     55 H533         0.2960    -2.4930   -10.7920 h1         1 167       0.000700
     56 H532        -1.2950    -3.2450   -10.9670 h1         1 167       0.000700
     57 H531        -1.1680    -1.5350   -10.5320 h1         1 167       0.000700
@<TRIPOS>BOND
     1     1     2 1   
     2     1    27 1   
     3     1    29 1   
     4     1    30 1   
     5     2     3 1   
     6     2    31 1   
     7     2    32 1   
     8     3     4 1   
     9     3    33 1   
    10     3    34 1   
    11     4     5 1   
    12     4    35 1   
    13     4    36 1   
    14     5     6 1   
    15     5     7 2   
    16     6    37 1   
    17     6    38 1   
    18     6    53 1   
    19     7    39 1   
    20     8    28 1   
    21     9    28 1   
    22    10    14 1   
    23    10    54 1   
    24    11    13 1   
    25    11    14 1   
    26    11    27 1   
    27    11    40 1   
    28    12    13 ar  
    29    12    15 1   
    30    12    19 ar  
    31    13    16 ar  
    32    14    15 1   
    33    14    41 1   
    34    15    42 1   
    35    15    43 1   
    36    16    17 ar  
    37    16    44 1   
    38    17    18 ar  
    39    17    45 1   
    40    18    19 ar  
    41    18    20 1   
    42    19    46 1   
    43    20    21 ar  
    44    20    25 ar  
    45    21    22 ar  
    46    21    47 1   
    47    22    23 ar  
    48    22    26 1   
    49    23    24 ar  
    50    23    48 1   
    51    24    25 ar  
    52    24    49 1   
    53    25    50 1   
    54    26    52 1   
    55    27    28 1   
    56    27    51 1   
    57    52    55 1   
    58    52    56 1   
    59    52    57 1   
@<TRIPOS>SUBSTRUCTURE
     1 167         1 TEMP              0 ****  ****    0 ROOT
