@<TRIPOS>MOLECULE
molecule
   57    59     1     0     0
SMALL
bcc


@<TRIPOS>ATOM
      1 C1           0.0000     0.0000     0.0000 c3         1 167      -0.048400
      2 C2          -0.5100     1.2480     0.7210 c3         1 167      -0.101400
      3 C3          -2.0400     1.2480     0.7200 c3         1 167      -0.069400
      4 C4          -2.5510     2.4970     1.4420 c3         1 167      -0.119700
      5 C5          -4.0580     2.4960     1.4410 c2         1 167       0.465200
      6 N6          -4.7440     3.5230     2.0350 nz         1 167      -0.808600
      7 N7          -4.7040     1.5260     0.8810 n2         1 167      -0.662100
      8 O8           2.7260    -0.9050     1.8160 o          1 167      -0.839800
      9 O8A          1.7060     1.0060     2.2480 o          1 167      -0.839800
     10 O9           4.1030    -2.5650    -0.7720 oh         1 167      -0.592800
     11 C10          2.0410    -1.2490    -0.7210 c3         1 167      -0.017400
     12 C11          2.6130    -0.8550    -2.9860 ca         1 167      -0.036300
     13 C12          1.5760    -1.2490    -2.1620 ca         1 167      -0.067300
     14 C13          3.5810    -1.2360    -0.7930 c3         1 167       0.117100
     15 C14          3.8440    -0.5610    -2.1540 c3         1 167      -0.148100
     16 C36          0.3410    -1.5720    -2.7040 ca         1 167      -0.124000
     17 C37          0.1400    -1.5010    -4.0670 ca         1 167      -0.127000
     18 C38          1.1810    -1.1030    -4.9010 cp         1 167      -0.063000
     19 C39          2.4210    -0.7860    -4.3540 ca         1 167      -0.102000
     20 C43          0.9730    -1.0240    -6.3680 cp         1 167       0.015000
     21 C44          0.2170    -1.9950    -7.0200 ca         1 167      -0.152000
     22 C45          0.0290    -1.9190    -8.3900 ca         1 167       0.115100
     23 C24          0.5860    -0.8710    -9.1090 ca         1 167      -0.233000
     24 C25          1.3330     0.0970    -8.4630 ca         1 167      -0.095000
     25 C6           1.5280     0.0250    -7.0970 ca         1 167      -0.157000
     26 O54         -0.7040    -2.8670    -9.0300 os         1 167      -0.300900
     27 C16          1.5290     0.0000     0.0000 c3         1 167      -0.166700
     28 C15          2.0310     0.0000     1.4210 c          1 167       0.889600
     29 H12         -0.3610    -0.8850     0.5110 hc         1 167       0.030200
     30 H11         -0.3610    -0.0000    -1.0210 hc         1 167       0.030200
     31 H22         -0.1490     2.1330     0.2100 hc         1 167       0.084200
     32 H21         -0.1490     1.2480     1.7420 hc         1 167       0.084200
     33 H32         -2.4020     0.3640     1.2300 hc         1 167       0.052700
     34 H31         -2.4010     1.2490    -0.3010 hc         1 167       0.052700
     35 H42         -2.1900     3.3820     0.9320 hc         1 167       0.086200
     36 H41         -2.1900     2.4960     2.4630 hc         1 167       0.086200
     37 H62         -5.3230     3.9740     1.3550 hn         1 167       0.458133
     38 H61         -4.0940     4.1850     2.4110 hn         1 167       0.458133
     39 HN7         -5.7040     1.5250     0.8810 hn         1 167       0.416400
     40 H10          1.7160    -2.1650    -0.2440 hc         1 167       0.087700
     41 H13          3.8210    -0.5530     0.0140 h1         1 167       0.097700
     42 H142         4.0940     0.1310    -1.3590 hc         1 167       0.092700
     43 H141         4.7140    -1.0130    -2.6150 hc         1 167       0.092700
     44 H36         -0.4690    -1.8820    -2.0550 ha         1 167       0.125000
     45 H37         -0.8270    -1.7490    -4.4860 ha         1 167       0.123000
     46 H39          3.2340    -0.4760    -4.9990 ha         1 167       0.128000
     47 H44         -0.2180    -2.8120    -6.4570 ha         1 167       0.148000
     48 H24          0.4370    -0.8110   -10.1810 ha         1 167       0.135000
     49 H25          1.7650     0.9130    -9.0290 ha         1 167       0.126000
     50 H6           2.1140     0.7850    -6.5930 ha         1 167       0.136000
     51 H16          1.8900     0.8850    -0.5100 hc         1 167       0.049700
     52 C53         -0.7180    -2.5140   -10.4140 c3         1 167       0.107700
     53 H63         -5.3150     3.1600     2.7720 hn         1 167       0.458133
     54 H9           4.9330    -2.5700    -0.3250 ho         1 167       0.397000
     55 H533        -1.1680    -1.5350   -10.5320 h1         1 167       0.041367
     56 H532         0.2960    -2.4930   -10.7920 h1         1 167       0.041367
     57 H531        -1.2950    -3.2450   -10.9670 h1         1 167       0.041367
@<TRIPOS>BOND
     1     1     2 1   
     2     1    27 1   
     3     1    29 1   
     4     1    30 1   
     5     2     3 1   
     6     2    31 1   
     7     2    32 1   
     8     3     4 1   
     9     3    33 1   
    10     3    34 1   
    11     4     5 1   
    12     4    35 1   
    13     4    36 1   
    14     5     6 1   
    15     5     7 2   
    16     6    37 1   
    17     6    38 1   
    18     7    39 1   
    19     8    28 1   
    20     9    28 1   
    21    10    14 1   
    22    10    54 1   
    23    11    13 1   
    24    11    14 1   
    25    11    27 1   
    26    11    40 1   
    27    12    13 ar  
    28    12    15 1   
    29    12    19 ar  
    30    13    16 ar  
    31    14    15 1   
    32    14    41 1   
    33    15    42 1   
    34    15    43 1   
    35    16    17 ar  
    36    16    44 1   
    37    17    18 ar  
    38    17    45 1   
    39    18    19 ar  
    40    18    20 1   
    41    19    46 1   
    42    20    21 ar  
    43    20    25 ar  
    44    21    22 ar  
    45    21    47 1   
    46    22    23 ar  
    47    22    26 1   
    48    23    24 ar  
    49    23    48 1   
    50    24    25 ar  
    51    24    49 1   
    52    25    50 1   
    53    52    26 1   
    54    52    55 1   
    55    52    56 1   
    56    52    57 1   
    57    27    28 1   
    58    27    51 1   
    59    53     6 1   
@<TRIPOS>SUBSTRUCTURE
     1 167         1 TEMP              0 ****  ****    0 ROOT
