@<TRIPOS>MOLECULE
168
   61    60     1     0     0
SMALL
bcc


@<TRIPOS>ATOM
      1 C2           2.6470     1.6260     1.4540 c3         1 168      -0.158100
      2 C1           3.1470     0.5650     0.5480 c          1 168       0.690100
      3 O1           3.6270    -0.5480     0.8200 o          1 168      -0.664000
      4 OP1          3.0930     0.9050    -0.7770 os         1 168      -0.410900
      5 CP2          3.2280    -0.0950    -1.7780 c3         1 168       0.116400
      6 CP3          4.6770    -0.5580    -1.9570 c3         1 168       0.080800
      7 NP4          4.9920    -1.8220    -1.2090 ny         1 168      -0.674800
      8 CP5          6.3210    -1.7790    -0.5060 c          1 168       0.550100
      9 OP5          7.2850    -1.3730    -1.1360 o          1 168      -0.389100
     10 CP6          6.3130    -2.2480     0.9260 c3         1 168      -0.190400
     11 CP7          7.7130    -2.0650     1.5140 c3         1 168       0.107800
     12 NP8          7.8360    -2.5580     2.9080 ny         1 168      -0.669800
     13 CP9          9.2370    -2.2800     3.4580 c          1 168       0.574100
     14 OP9          9.3570    -1.2230     4.0470 o          1 168      -0.390100
     15 CPA         10.2910    -3.3550     3.2280 c3         1 168       0.099100
     16 OPA          9.9420    -4.0210     2.0230 oh         1 168      -0.645800
     17 CPB         10.3910    -4.3180     4.4340 c3         1 168      -0.097000
     18 CPD         11.5010    -5.3220     4.1370 c3         1 168      -0.111100
     19 CPE         10.7520    -3.5360     5.6860 c3         1 168      -0.111100
     20 CPC          9.0900    -5.1030     4.6340 c3         1 168       0.119400
     21 OA6          8.0350    -4.2520     5.0900 os         1 168      -0.536900
     22 CT1          7.7000    -4.2940     6.4400 c          1 168       0.640100
     23 OT1          8.3450    -5.0560     7.1470 o          1 168      -0.469000
     24 CT2          6.5790    -3.3450     6.8090 c3         1 168      -0.089000
     25 CT3          5.4180    -3.5060     5.8420 c3         1 168      -0.088100
     26 CT4          6.1160    -3.6750     8.2240 c3         1 168      -0.088100
     27 CT5          7.1220    -1.9230     6.7640 c3         1 168      -0.088100
     28 H21          3.2260     1.6110     2.4100 hc         1 168       0.108367
     29 H22          2.7260     2.6340     0.9730 hc         1 168       0.108367
     30 H23          1.5660     1.4220     1.6770 hc         1 168       0.108367
     31 HP21         2.5210    -0.9430    -1.5770 h1         1 168       0.114200
     32 HP22         2.9120     0.4540    -2.7160 h1         1 168       0.114200
     33 HP31         4.8780    -0.7480    -3.0520 hx         1 168       0.130200
     34 HP32         5.3760     0.2580    -1.6090 hx         1 168       0.130200
     35 HP4          4.9940    -2.6100    -1.8690 hn         1 168       0.480300
     36 HP61         5.5460    -1.6510     1.5040 hc         1 168       0.130700
     37 HP62         6.0020    -3.3300     0.9570 hc         1 168       0.130700
     38 HP71         7.9870    -0.9680     1.5060 hx         1 168       0.135200
     39 HP72         8.4740    -2.6240     0.8850 hx         1 168       0.135200
     40 HP8          7.6890    -3.5790     2.9510 hn         1 168       0.472300
     41 HPA         11.2750    -2.8080     3.0990 h1         1 168       0.124700
     42 HPA0        10.6440    -4.6650     1.8360 ho         1 168       0.473000
     43 HPD1        11.1930    -6.0370     3.3360 hc         1 168       0.067533
     44 HPD2        11.7290    -5.9120     5.0600 hc         1 168       0.067533
     45 HPD3        12.4350    -4.7960     3.8230 hc         1 168       0.067533
     46 HPE1        10.7990    -4.2350     6.5600 hc         1 168       0.067533
     47 HPE2         9.9770    -2.7610     5.9070 hc         1 168       0.067533
     48 HPE3        11.7450    -3.0400     5.5700 hc         1 168       0.067533
     49 HPC1         8.7220    -5.5110     3.6530 h1         1 168       0.088700
     50 HPC2         9.2680    -5.9480     5.3540 h1         1 168       0.088700
     51 HT31         5.0410    -4.5580     5.8540 hc         1 168       0.051478
     52 HT32         4.5830    -2.8260     6.1410 hc         1 168       0.051478
     53 HT33         5.7370    -3.2530     4.8020 hc         1 168       0.051478
     54 HT41         5.6940    -4.7080     8.2640 hc         1 168       0.051478
     55 HT42         5.3300    -2.9480     8.5400 hc         1 168       0.051478
     56 HT43         6.9750    -3.6170     8.9370 hc         1 168       0.051478
     57 HT51         6.3050    -1.2000     7.0040 hc         1 168       0.051478
     58 HT52         7.5290    -1.6910     5.7490 hc         1 168       0.051478
     59 HT53         7.9410    -1.7930     7.5140 hc         1 168       0.051478
     60 HP42         4.2460    -1.9780    -0.5030 hn         1 168       0.480300
     61 HP82         7.1420    -2.1080     3.5220 hn         1 168       0.472300
@<TRIPOS>BOND
     1     1     2 1   
     2     1    28 1   
     3     1    29 1   
     4     1    30 1   
     5     2     3 2   
     6     2     4 1   
     7     4     5 1   
     8     5     6 1   
     9     5    31 1   
    10     5    32 1   
    11     6     7 1   
    12     6    33 1   
    13     6    34 1   
    14     7     8 1   
    15     7    35 1   
    16     7    60 1   
    17     8     9 2   
    18     8    10 1   
    19    10    11 1   
    20    10    36 1   
    21    10    37 1   
    22    11    12 1   
    23    11    38 1   
    24    11    39 1   
    25    12    13 1   
    26    12    40 1   
    27    12    61 1   
    28    13    14 2   
    29    13    15 1   
    30    15    16 1   
    31    15    17 1   
    32    15    41 1   
    33    16    42 1   
    34    17    18 1   
    35    17    19 1   
    36    17    20 1   
    37    18    43 1   
    38    18    44 1   
    39    18    45 1   
    40    19    46 1   
    41    19    47 1   
    42    19    48 1   
    43    20    21 1   
    44    20    49 1   
    45    20    50 1   
    46    21    22 1   
    47    22    23 2   
    48    22    24 1   
    49    24    25 1   
    50    24    26 1   
    51    24    27 1   
    52    25    51 1   
    53    25    52 1   
    54    25    53 1   
    55    26    54 1   
    56    26    55 1   
    57    26    56 1   
    58    27    57 1   
    59    27    58 1   
    60    27    59 1   
@<TRIPOS>SUBSTRUCTURE
     1 168         1 TEMP              0 ****  ****    0 ROOT
