@<TRIPOS>MOLECULE
molecule
   59    58     1     0     0
SMALL
bcc


@<TRIPOS>ATOM
      1 C2           0.0000     0.0000     0.0000 c3         1 168      -0.137100
      2 C1           1.5070     0.0000     0.0000 c          1 168       0.634100
      3 O1           2.1100     0.0000     1.0470 o          1 168      -0.546000
      4 OP1          2.1790     0.0010    -1.1630 os         1 168      -0.446900
      5 CP2          3.6290     0.0010    -1.1630 c3         1 168       0.135400
      6 CP3          4.1390     0.0010    -2.6040 c3         1 168       0.114000
      7 NP4          3.6510     1.1980    -3.2940 ns         1 168      -0.584900
      8 CP5          3.9770     1.4120    -4.5840 c          1 168       0.660100
      9 OP5          4.6740     0.6130    -5.1750 o          1 168      -0.600100
     10 CP6          3.4750     2.6420    -5.2940 c3         1 168      -0.178400
     11 CP7          3.9840     2.6430    -6.7370 c3         1 168       0.125000
     12 NP8          3.4970     3.8390    -7.4270 ns         1 168      -0.597900
     13 CP9          3.8230     4.0520    -8.7160 c          1 168       0.632100
     14 OP9          4.5060     3.2460    -9.3110 o          1 168      -0.574100
     15 CPA          3.3360     5.2930    -9.4210 c3         1 168       0.087100
     16 OPA          3.5180     5.1420   -10.8300 oh         1 168      -0.570800
     17 CPB          4.1340     6.5030    -8.9310 c3         1 168      -0.058000
     18 CPD          3.8430     6.7380    -7.4480 c3         1 168      -0.087100
     19 CPE          5.6280     6.2410    -9.1210 c3         1 168      -0.087100
     20 CPC          3.7270     7.7410    -9.7330 c3         1 168       0.165400
     21 OA6          4.4840     8.8880    -9.2680 os         1 168      -0.440900
     22 CT1          4.2930    10.0920    -9.8310 c          1 168       0.644100
     23 OT1          3.4900    10.2190   -10.7260 o          1 168      -0.549000
     24 CT2          5.0760    11.2840    -9.3480 c3         1 168      -0.106000
     25 CT3          4.6720    12.5210   -10.1510 c3         1 168      -0.079100
     26 CT4          4.7850    11.5200    -7.8660 c3         1 168      -0.079100
     27 CT5          6.5720    11.0210    -9.5390 c3         1 168      -0.079100
     28 H21         -0.3610     1.0120    -0.1410 hc         1 168       0.071033
     29 H22         -0.3610    -0.6280    -0.8050 hc         1 168       0.071033
     30 H23         -0.3610    -0.3840     0.9470 hc         1 168       0.071033
     31 HP21         3.9900    -0.8840    -0.6520 h1         1 168       0.058200
     32 HP22         3.9900     0.8850    -0.6520 h1         1 168       0.058200
     33 HP31         5.2220     0.0000    -2.6040 h1         1 168       0.068700
     34 HP32         3.7780    -0.8830    -3.1150 h1         1 168       0.068700
     35 HP4          3.1060     1.8740    -2.7980 hn         1 168       0.318500
     36 HP61         3.8360     3.5260    -4.7830 hc         1 168       0.062200
     37 HP62         2.3910     2.6430    -5.2940 hc         1 168       0.062200
     38 HP71         5.0670     2.6420    -6.7380 h1         1 168       0.072200
     39 HP72         3.6220     1.7590    -7.2480 h1         1 168       0.072200
     40 HP8          2.8810     4.4710    -6.9550 hn         1 168       0.309500
     41 HPA          2.2850     5.4420    -9.2060 h1         1 168       0.038700
     42 HPA0         2.7560     4.7310   -11.2030 ho         1 168       0.409000
     43 HPD1         2.8040     6.5080    -7.2430 hc         1 168       0.045867
     44 HPD2         4.4790     6.0970    -6.8490 hc         1 168       0.045867
     45 HPD3         4.0390     7.7740    -7.2010 hc         1 168       0.045867
     46 HPE1         5.8850     6.3560   -10.1670 hc         1 168       0.045867
     47 HPE2         5.8610     5.2320    -8.8010 hc         1 168       0.045867
     48 HPE3         6.1970     6.9470    -8.5290 hc         1 168       0.045867
     49 HPC1         3.9330     7.5740   -10.7840 h1         1 168       0.056200
     50 HPC2         2.6690     7.9280    -9.5970 h1         1 168       0.056200
     51 HT31         3.6130    12.7100   -10.0150 hc         1 168       0.045033
     52 HT32         4.8760    12.3540   -11.2010 hc         1 168       0.045033
     53 HT33         5.2380    13.3780    -9.8050 hc         1 168       0.045033
     54 HT41         5.2750    10.7550    -7.2760 hc         1 168       0.045033
     55 HT42         3.7160    11.4760    -7.6970 hc         1 168       0.045033
     56 HT43         5.1580    12.4940    -7.5750 hc         1 168       0.045033
     57 HT51         6.7530    10.6800   -10.5510 hc         1 168       0.045033
     58 HT52         7.1250    11.9360    -9.3620 hc         1 168       0.045033
     59 HT53         6.8980    10.2610    -8.8380 hc         1 168       0.045033
@<TRIPOS>BOND
     1     1     2 1
     2     1    28 1
     3     1    29 1
     4     1    30 1
     5     2     3 2
     6     2     4 1
     7     4     5 1
     8     5     6 1
     9     5    31 1
    10     5    32 1
    11     6     7 1
    12     6    33 1
    13     6    34 1
    14     7     8 1
    15     7    35 1
    16     8     9 2
    17     8    10 1
    18    10    11 1
    19    10    36 1
    20    10    37 1
    21    11    12 1
    22    11    38 1
    23    11    39 1
    24    12    13 1
    25    12    40 1
    26    13    14 2
    27    13    15 1
    28    15    16 1
    29    15    17 1
    30    15    41 1
    31    16    42 1
    32    17    18 1
    33    17    19 1
    34    17    20 1
    35    18    43 1
    36    18    44 1
    37    18    45 1
    38    19    46 1
    39    19    47 1
    40    19    48 1
    41    20    21 1
    42    20    49 1
    43    20    50 1
    44    21    22 1
    45    22    23 2
    46    22    24 1
    47    24    25 1
    48    24    26 1
    49    24    27 1
    50    25    51 1
    51    25    52 1
    52    25    53 1
    53    26    54 1
    54    26    55 1
    55    26    56 1
    56    27    57 1
    57    27    58 1
    58    27    59 1
@<TRIPOS>SUBSTRUCTURE
     1 168         1 TEMP              0 ****  ****    0 ROOT
