@<TRIPOS>MOLECULE
169
   66    61     1     0     0
SMALL
bcc


@<TRIPOS>ATOM
      1 C1          1.6990   -1.8710   -0.6990 c1        1 169     -0.072000
      2 C2          1.2620   -0.8230    0.0710 c2        1 169     -0.203000
      3 C3         -1.0830    0.9570   -2.0560 c3        1 169     -0.290000
      4 C4         -0.0730   -0.5380    0.1890 c2        1 169      0.125000
      5 N1          3.3470    2.1030   -0.0450 n         1 169     -0.349000
      6 C5          4.6450    1.5060   -0.1930 c3        1 169     -0.045000
      7 C6          5.6840    2.4470   -0.8480 c3        1 169     -0.042000
      8 C7          6.3970    6.3560   -4.8820 c1        1 169     -0.232000
      9 C8          6.4100    7.2380   -5.6910 c1        1 169     -0.232000
     10 O1          6.1600    4.9590   -1.9410 o         1 169     -0.419000
     11 N2          5.9680    3.6210   -0.0620 n         1 169     -0.365000
     12 C10         7.3440    7.6150   -1.6970 c3        1 169     -0.287000
     13 C11         8.7930    7.4560   -1.6580 c2        1 169      0.300000
     14 N3          6.9030    5.8720    0.0460 n         1 169     -0.365000
     15 C12         6.6370    7.2220   -0.3940 c3        1 169     -0.029000
     16 O2          9.6250    7.8480   -2.5750 os        1 169     -0.101000
     17 C15        10.0900    9.5410   -5.8680 c3        1 169     -0.047000
     18 N4         11.0940    9.5670   -6.9020 n3        1 169     -0.340000
     19 C16        12.1170   10.5550   -6.8350 c2        1 169      0.097000
     20 N5         12.6170   10.9510   -8.2180 n4        1 169     -0.048000
     21 N6         12.6430   11.2240   -5.8710 n2        1 169     -0.192000
     22 C17         7.3100   11.9630   -1.5990 c1        1 169      0.440000
     23 O3          6.9490   13.0370   -1.2740 o         1 169     -0.218500
     24 O4          7.6790   10.8700   -1.9320 o         1 169     -0.218500
     25 C18         2.2210    1.4860    0.4300 c2        1 169      0.327000
     26 O5          1.1250    2.0590    0.5430 o         1 169     -0.281000
     27 N7          2.2490    0.0400    0.8620 n4        1 169     -0.101000
     28 H11A        1.9000   -0.8100   -2.6640 ha        1 169      0.013500
     29 H12A        1.4810   -1.2860   -2.9180 ha        1 169      0.013500
     30 H13         2.6820   -2.2830   -0.8890 ha        1 169      0.156000
     31 H31        -1.2820    1.6830   -2.8760 hc        1 169      0.074250
     32 H32        -2.0500    0.5300   -1.7100 hc        1 169      0.074250
     33 H33        -0.4270    0.1440   -2.4390 hc        1 169      0.074250
     34 H41        -0.4820    0.2830    0.8070 ha        1 169      0.193000
     35 H42        -0.5810    1.4870   -1.2140 hc        1 169      0.074250
     36 H43        -0.8080   -1.1610   -0.3620 ha        1 169      0.193000
     37 H51         5.0240    1.1770    0.8190 h1        1 169      0.100500
     38 H52         4.5810    0.5980   -0.8630 h1        1 169      0.100500
     39 H61         5.3210    2.7670   -1.8690 h1        1 169      0.130500
     40 H62         6.6200    1.8280   -0.9880 h1        1 169      0.130500
     41 H71         6.3420    5.5440   -4.1930 ha        1 169      0.236000
     42 H72         3.2190    3.0510   -0.3430 hn        1 169      0.287000
     43 H81         6.2930    3.4570    0.8660 hn        1 169      0.234000
     44 H82         6.3800    8.0030   -6.4290 ha        1 169      0.236000
     45 H10         6.9300    6.9740   -2.5490 hc        1 169      0.209500
     46 H11         9.3210    6.9500   -0.8070 h4        1 169      0.239000
     47 HN3         6.8920    5.7740    1.0410 hn        1 169      0.233000
     48 H12         6.9670    7.9200    0.4290 h1        1 169      0.126500
     49 H131        8.7470    9.5370   -3.4510 h1        1 169      0.151500
     50 H132        7.0690    8.6880   -1.9430 hc        1 169      0.209500
     51 H141       11.2280    9.1690   -4.0240 hc        1 169      0.122500
     52 H142       10.7760    7.6730   -4.9350 hc        1 169      0.122500
     53 H151        8.3750    7.9150   -4.2750 h1        1 169      0.151500
     54 H152        9.1650    9.1170   -6.3650 h1        1 169      0.129500
     55 HN4        11.4000    8.6670   -7.2160 hn        1 169      0.240000
     56 HN51       13.2810   11.7380   -8.1410 hn        1 169      0.281667
     57 HN55       13.0900   10.1540   -8.6560 hn        1 169      0.281667
     58 HN6        12.3830   11.0130   -4.9310 hn        1 169      0.228000
     59 HN7         3.1800   -0.3730    0.7660 hn        1 169      0.243500
     60 C9          6.3250    4.8110   -0.7040 c2        1 169      0.380000
     61 H321        5.5330    7.3880   -0.5750 h1        1 169      0.126500
     62 H421        9.8540   10.5950   -5.5450 h1        1 169      0.129500
     63 H53        11.8180   11.2380   -8.7990 hn        1 169      0.281667
     64 H721        1.9870    0.0250    1.8560 hn        1 169      0.243500
     65 C13         9.1650    8.5480   -3.7820 c3        1 169     -0.048000
     66 C14        10.4140    8.6920   -4.6330 c3        1 169     -0.218000
@<TRIPOS>BOND
     1    1    2 1
     2    1   30 1
     3    2    4 1
     4    2   27 1
     5    3   31 1
     6    3   32 1
     7    3   33 1
     8    3   35 1
     9    4   34 1
    10    4   36 1
    11    5    6 1
    12    5   25 1
    13    5   42 1
    14    6    7 1
    15    6   37 1
    16    6   38 1
    17    7   11 1
    18    7   39 1
    19    7   40 1
    20    8    9 1
    21    8   41 1
    22    9   44 1
    23   10   60 1
    24   11   43 1
    25   11   60 1
    26   12   13 1
    27   12   15 1
    28   12   45 1
    29   12   50 1
    30   13   16 1
    31   13   46 1
    32   14   15 1
    33   14   47 1
    34   14   60 1
    35   15   48 1
    36   15   61 1
    37   16   65 1
    38   17   18 1
    39   17   54 1
    40   17   62 1
    41   17   66 1
    42   18   19 1
    43   18   55 1
    44   19   20 1
    45   19   21 1
    46   20   56 1
    47   20   57 1
    48   20   63 1
    49   21   58 1
    50   22   23 1
    51   22   24 1
    52   25   26 1
    53   25   27 1
    54   27   59 1
    55   27   64 1
    56   28   29 1
    57   49   65 1
    58   51   66 1
    59   52   66 1
    60   53   65 1
    61   65   66 1
@<TRIPOS>SUBSTRUCTURE
     1 169         1 TEMP              0 ****  ****    0 ROOT
