@<TRIPOS>MOLECULE
molecule
   62    61     1     0     0
SMALL
bcc


@<TRIPOS>ATOM
      1 C1           0.0000     0.0000     0.0000 c3         1 16A      -0.092100
      2 C2           1.5300     0.0000     0.0000 c3         1 16A      -0.084400
      3 C3           2.0400     0.0000     1.4420 c3         1 16A      -0.081400
      4 C4           3.5710    -0.0000     1.4420 c3         1 16A      -0.082400
      5 C5           4.0810     0.0010     2.8840 c3         1 16A      -0.082400
      6 C6           5.6120     0.0010     2.8830 c3         1 16A      -0.081400
      7 C7           6.1220     0.0010     4.3250 c3         1 16A      -0.081400
      8 C8           7.6520     0.0010     4.3250 c3         1 16A      -0.081400
      9 C9           8.1630     0.0020     5.7670 c3         1 16A      -0.081400
     10 C10          9.6920     0.0020     5.7670 c3         1 16A      -0.081400
     11 C11         10.2030     0.0020     7.2090 c3         1 16A      -0.081400
     12 C12         11.7330     0.0020     7.2090 c3         1 16A      -0.081400
     13 C13         12.2430     0.0030     8.6510 c3         1 16A      -0.080400
     14 C14         13.7730     0.0030     8.6500 c3         1 16A      -0.078400
     15 C15         14.2840     0.0030    10.0920 c3         1 16A      -0.110400
     16 C16         15.8140     0.0030    10.0910 c3         1 16A       0.101800
     17 N1          16.3040     0.0030    11.4760 n4         1 16A      -0.577800
     18 C17         15.8150    -1.1960    12.1700 c3         1 16A       0.094100
     19 C18         17.7740     0.0040    11.4760 c3         1 16A       0.094100
     20 C19         15.8150     1.2030    12.1690 c3         1 16A       0.094100
     21 H11         -0.3610     0.8840     0.5110 hc         1 16A       0.033700
     22 H12         -0.3610     0.0000    -1.0210 hc         1 16A       0.033700
     23 H13         -0.3610    -0.8850     0.5110 hc         1 16A       0.033700
     24 H21          1.8910     0.8840    -0.5110 hc         1 16A       0.039700
     25 H22          1.8910    -0.8840    -0.5110 hc         1 16A       0.039700
     26 H31          1.6790    -0.8840     1.9530 hc         1 16A       0.041700
     27 H32          1.6790     0.8840     1.9530 hc         1 16A       0.041700
     28 H41          3.9320    -0.8850     0.9320 hc         1 16A       0.041700
     29 H42          3.9320     0.8840     0.9310 hc         1 16A       0.041700
     30 H51          3.7200    -0.8830     3.3950 hc         1 16A       0.041700
     31 H52          3.7200     0.8860     3.3940 hc         1 16A       0.041700
     32 H61          5.9720    -0.8840     2.3720 hc         1 16A       0.041700
     33 H62          5.9720     0.8860     2.3720 hc         1 16A       0.041700
     34 H71          5.7600    -0.8830     4.8360 hc         1 16A       0.041700
     35 H72          5.7610     0.8860     4.8360 hc         1 16A       0.041700
     36 H81          8.0130     0.8850     3.8130 hc         1 16A       0.042700
     37 H82          8.0130    -0.8840     3.8150 hc         1 16A       0.042700
     38 H91          7.8020    -0.8820     6.2790 hc         1 16A       0.042700
     39 H92          7.8020     0.8870     6.2780 hc         1 16A       0.042700
     40 H101        10.0530     0.8860     5.2560 hc         1 16A       0.043700
     41 H102        10.0530    -0.8830     5.2560 hc         1 16A       0.043700
     42 H111         9.8420    -0.8820     7.7200 hc         1 16A       0.043700
     43 H112         9.8420     0.8860     7.7200 hc         1 16A       0.043700
     44 H121        12.0930     0.8860     6.6970 hc         1 16A       0.046700
     45 H122        12.0930    -0.8830     6.6980 hc         1 16A       0.046700
     46 H131        11.8830     0.8880     9.1610 hc         1 16A       0.047700
     47 H132        11.8830    -0.8810     9.1630 hc         1 16A       0.047700
     48 H141        14.1340     0.8880     8.1390 hc         1 16A       0.055700
     49 H142        14.1340    -0.8820     8.1390 hc         1 16A       0.055700
     50 H151        13.9230    -0.8820    10.6030 hc         1 16A       0.061700
     51 H152        13.9230     0.8880    10.6030 hc         1 16A       0.061700
     52 H161        16.1750    -0.8820     9.5810 hx         1 16A       0.100700
     53 H162        16.1750     0.8870     9.5800 hx         1 16A       0.100700
     54 H171        16.4410    -1.3950    13.0320 hx         1 16A       0.098589
     55 H172        14.7940    -1.0350    12.4940 hx         1 16A       0.098589
     56 H173        15.8500    -2.0430    11.4950 hx         1 16A       0.098589
     57 H181        18.1340     0.8890    10.9650 hx         1 16A       0.098589
     58 H182        18.1350     0.0040    12.4970 hx         1 16A       0.098589
     59 H183        18.1350    -0.8800    10.9650 hx         1 16A       0.098589
     60 H191        16.4400     1.4030    13.0310 hx         1 16A       0.098589
     61 H192        15.8500     2.0500    11.4940 hx         1 16A       0.098589
     62 H193        14.7940     1.0420    12.4940 hx         1 16A       0.098589
@<TRIPOS>BOND
     1     1     2 1   
     2     1    21 1   
     3     1    22 1   
     4     1    23 1   
     5     2     3 1   
     6     2    24 1   
     7     2    25 1   
     8     3     4 1   
     9     3    26 1   
    10     3    27 1   
    11     4     5 1   
    12     4    28 1   
    13     4    29 1   
    14     5     6 1   
    15     5    30 1   
    16     5    31 1   
    17     6     7 1   
    18     6    32 1   
    19     6    33 1   
    20     7     8 1   
    21     7    34 1   
    22     7    35 1   
    23     8     9 1   
    24     8    36 1   
    25     8    37 1   
    26     9    10 1   
    27     9    38 1   
    28     9    39 1   
    29    10    11 1   
    30    10    40 1   
    31    10    41 1   
    32    11    12 1   
    33    11    42 1   
    34    11    43 1   
    35    12    13 1   
    36    12    44 1   
    37    12    45 1   
    38    13    14 1   
    39    13    46 1   
    40    13    47 1   
    41    14    15 1   
    42    14    48 1   
    43    14    49 1   
    44    15    16 1   
    45    15    50 1   
    46    15    51 1   
    47    16    17 1   
    48    16    52 1   
    49    16    53 1   
    50    17    18 1   
    51    17    19 1   
    52    17    20 1   
    53    18    54 1   
    54    18    55 1   
    55    18    56 1   
    56    19    57 1   
    57    19    58 1   
    58    19    59 1   
    59    20    60 1   
    60    20    61 1   
    61    20    62 1   
@<TRIPOS>SUBSTRUCTURE
     1 16A         1 TEMP              0 ****  ****    0 ROOT
