@<TRIPOS>MOLECULE
16A
   62    61     1     0     0
SMALL
bcc


@<TRIPOS>ATOM
      1 C1          -0.0310     1.0300     0.3030 c3         1 16A      -0.099100
      2 C2           1.4690     0.8990     0.2380 c3         1 16A      -0.080400
      3 C3           2.0390     0.4320     1.5610 c3         1 16A      -0.082400
      4 C4           3.5460     0.3050     1.5060 c3         1 16A      -0.078400
      5 C5           4.0930    -0.2290     2.8130 c3         1 16A      -0.077400
      6 C6           5.6050    -0.1850     2.8850 c3         1 16A      -0.081400
      7 C7           6.2940    -1.1140     1.9060 c3         1 16A      -0.079400
      8 C8           6.7900    -0.4170     0.6540 c3         1 16A      -0.077400
      9 C9           7.9080     0.5750     0.9240 c3         1 16A      -0.081400
     10 C10          7.4930     2.0240     0.7520 c3         1 16A      -0.079400
     11 C11          7.8240     2.5950    -0.6110 c3         1 16A      -0.078400
     12 C12          7.0390     1.9770    -1.7480 c3         1 16A      -0.079400
     13 C13          5.5860     2.4020    -1.7450 c3         1 16A      -0.080400
     14 C14          4.8760     1.8990    -2.9860 c3         1 16A      -0.080400
     15 C15          3.4030     2.2640    -2.9430 c3         1 16A      -0.106400
     16 C16          2.7530     1.8480    -4.2550 c3         1 16A       0.113800
     17 N1           1.2540     2.0230    -4.3180 n4         1 16A      -0.602800
     18 C17          0.8110     1.7930    -5.7280 c3         1 16A       0.086433
     19 C18          0.5800     1.0320    -3.4300 c3         1 16A       0.086433
     20 C19          0.8710     3.4040    -3.9050 c3         1 16A       0.086433
     21 H11         -0.4420     1.3700    -0.6780 hc         1 16A       0.035367
     22 H12         -0.3270     1.7720     1.0840 hc         1 16A       0.035367
     23 H13         -0.5010     0.0490     0.5600 hc         1 16A       0.035367
     24 H21          1.9250     1.8880    -0.0360 hc         1 16A       0.019200
     25 H22          1.7540     0.1670    -0.5650 hc         1 16A       0.019200
     26 H31          1.5880    -0.5590     1.8330 hc         1 16A       0.052200
     27 H32          1.7510     1.1580     2.3680 hc         1 16A       0.052200
     28 H41          4.0050     1.3060     1.2840 hc         1 16A       0.034700
     29 H42          3.8370    -0.3850     0.6700 hc         1 16A       0.034700
     30 H51          3.6770     0.3780     3.6610 hc         1 16A       0.044700
     31 H52          3.7400    -1.2840     2.9580 hc         1 16A       0.044700
     32 H61          5.9570     0.8690     2.7210 hc         1 16A       0.046700
     33 H62          5.9070    -0.4710     3.9290 hc         1 16A       0.046700
     34 H71          5.5920    -1.9370     1.6070 hc         1 16A       0.043200
     35 H72          7.1680    -1.6010     2.4160 hc         1 16A       0.043200
     36 H81          7.1600    -1.2000    -0.0600 hc         1 16A       0.032200
     37 H82          5.9270     0.0990     0.1540 hc         1 16A       0.032200
     38 H91          8.7700     0.3530     0.2400 hc         1 16A       0.047200
     39 H92          8.2850     0.4320     1.9720 hc         1 16A       0.047200
     40 H101         6.3940     2.1390     0.9520 hc         1 16A       0.041700
     41 H102         8.0290     2.6430     1.5220 hc         1 16A       0.041700
     42 H111         7.6410     3.7020    -0.5940 hc         1 16A       0.046700
     43 H112         8.9190     2.4450    -0.8130 hc         1 16A       0.046700
     44 H121         7.1040     0.8580    -1.6810 hc         1 16A       0.045700
     45 H122         7.5100     2.2830    -2.7210 hc         1 16A       0.045700
     46 H131         5.0760     2.0000    -0.8290 hc         1 16A       0.048700
     47 H132         5.5190     3.5220    -1.7010 hc         1 16A       0.048700
     48 H141         4.9900     0.7860    -3.0590 hc         1 16A       0.053700
     49 H142         5.3530     2.3470    -3.8980 hc         1 16A       0.053700
     50 H151         3.3000     3.3710    -2.7900 hc         1 16A       0.066200
     51 H152         2.9210     1.7500    -2.0680 hc         1 16A       0.066200
     52 H161         2.9660     0.7590    -4.4550 hx         1 16A       0.098200
     53 H162         3.1940     2.4610    -5.0940 hx         1 16A       0.098200
     54 H171        -0.3090     1.8550    -5.7800 hx         1 16A       0.102033
     55 H172         1.1460     0.7750    -6.0610 hx         1 16A       0.102033
     56 H173         1.2620     2.5750    -6.3940 hx         1 16A       0.102033
     57 H181         0.8350    -0.0060    -3.7690 hx         1 16A       0.102033
     58 H182        -0.5320     1.1830    -3.4810 hx         1 16A       0.102033
     59 H183         0.9250     1.1750    -2.3690 hx         1 16A       0.102033
     60 H191         1.4650     4.1480    -4.4990 hx         1 16A       0.102033
     61 H192         1.0820     3.5400    -2.8110 hx         1 16A       0.102033
     62 H193        -0.2250     3.5580    -4.0950 hx         1 16A       0.102033
@<TRIPOS>BOND
     1     1     2 1   
     2     1    21 1   
     3     1    22 1   
     4     1    23 1   
     5     2     3 1   
     6     2    24 1   
     7     2    25 1   
     8     3     4 1   
     9     3    26 1   
    10     3    27 1   
    11     4     5 1   
    12     4    28 1   
    13     4    29 1   
    14     5     6 1   
    15     5    30 1   
    16     5    31 1   
    17     6     7 1   
    18     6    32 1   
    19     6    33 1   
    20     7     8 1   
    21     7    34 1   
    22     7    35 1   
    23     8     9 1   
    24     8    36 1   
    25     8    37 1   
    26     9    10 1   
    27     9    38 1   
    28     9    39 1   
    29    10    11 1   
    30    10    40 1   
    31    10    41 1   
    32    11    12 1   
    33    11    42 1   
    34    11    43 1   
    35    12    13 1   
    36    12    44 1   
    37    12    45 1   
    38    13    14 1   
    39    13    46 1   
    40    13    47 1   
    41    14    15 1   
    42    14    48 1   
    43    14    49 1   
    44    15    16 1   
    45    15    50 1   
    46    15    51 1   
    47    16    17 1   
    48    16    52 1   
    49    16    53 1   
    50    17    18 1   
    51    17    19 1   
    52    17    20 1   
    53    18    54 1   
    54    18    55 1   
    55    18    56 1   
    56    19    57 1   
    57    19    58 1   
    58    19    59 1   
    59    20    60 1   
    60    20    61 1   
    61    20    62 1   
@<TRIPOS>SUBSTRUCTURE
     1 16A         1 TEMP              0 ****  ****    0 ROOT
