@<TRIPOS>MOLECULE
16B
   35    36     1     0     0
SMALL
bcc


@<TRIPOS>ATOM
      1 OAA         -0.8610    -3.4560    -1.1990 oh         1 16B      -0.789400
      2 PAE         -0.3550    -3.3050     0.3350 p5         1 16B       1.491800
      3 OAD         -0.6890    -4.6470     0.9090 o          1 16B      -0.866000
      4 OAF         -0.7350    -2.0260     0.9400 o          1 16B      -0.866000
      5 O5'          1.2640    -3.3060     0.0150 os         1 16B      -0.583200
      6 C5'          1.8770    -4.5450    -0.1570 c3         1 16B       0.174400
      7 C4'          2.8720    -4.5170    -1.3240 c3         1 16B       0.079100
      8 O4'          3.4450    -5.8300    -1.4550 os         1 16B      -0.429600
      9 C3'          2.2700    -4.1510    -2.7000 c3         1 16B       0.087100
     10 O3'          2.9220    -3.0180    -3.2460 oh         1 16B      -0.608800
     11 C2'          2.5590    -5.3670    -3.6150 c3         1 16B       0.141100
     12 O2'          3.6710    -5.1910    -4.4600 oh         1 16B      -0.592800
     13 C1'          2.8550    -6.5060    -2.5850 c3         1 16B       0.269500
     14 NAM          1.6480    -7.2220    -2.1790 n          1 16B      -0.332400
     15 CAL          1.7750    -8.1960    -1.1030 c          1 16B       0.762500
     16 OAK          2.7370    -8.9900    -1.0790 o          1 16B      -0.602100
     17 NAG          0.7590    -8.2310    -0.1200 ne         1 16B      -0.734100
     18 CAN          0.4470    -6.6530    -2.4450 c1         1 16B      -0.065900
     19 CAI         -0.6530    -6.8990    -1.6060 cf         1 16B      -0.552700
     20 CAH         -0.3460    -7.5290    -0.3740 cf         1 16B       0.581500
     21 NAB         -1.3010    -7.2440     0.7620 ny         1 16B      -0.491500
     22 OAC         -0.7370    -7.1140     1.9830 oh         1 16B      -0.410300
     23 H3           1.0960    -5.3390    -0.3280 h1         1 16B       0.032200
     24 H4           2.4620    -4.8050     0.7710 h1         1 16B       0.032200
     25 H5           3.7290    -3.8350    -1.0750 h1         1 16B       0.072700
     26 H6           1.1630    -3.9790    -2.6310 h1         1 16B       0.095700
     27 H7           2.6290    -2.2650    -2.7170 ho         1 16B       0.418000
     28 H8           1.6940    -5.6030    -4.2880 h1         1 16B       0.125700
     29 H9           4.3370    -4.6970    -3.9650 ho         1 16B       0.411000
     30 H10          3.6340    -7.2420    -2.9270 h2         1 16B       0.109700
     31 H11         -0.7870    -4.3400    -1.5490 ho         1 16B       0.446000
     32 H12         -1.6360    -6.5010    -1.8630 ha         1 16B       0.143000
     33 H13         -1.7730    -6.3360     0.5150 hn         1 16B       0.468800
     34 H14         -0.1930    -6.2810     1.9680 ho         1 16B       0.513000
     35 HAB2        -1.9740    -8.0170     0.8430 hn         1 16B       0.468800
@<TRIPOS>BOND
     1     1     2 1   
     2     1    31 1   
     3     2     3 1   
     4     2     4 1   
     5     2     5 1   
     6     5     6 1   
     7     6     7 1   
     8     6    23 1   
     9     6    24 1   
    10     7     8 1   
    11     7     9 1   
    12     7    25 1   
    13     8    13 1   
    14     9    10 1   
    15     9    11 1   
    16     9    26 1   
    17    10    27 1   
    18    11    12 1   
    19    11    13 1   
    20    11    28 1   
    21    12    29 1   
    22    13    14 1   
    23    13    30 1   
    24    14    15 1   
    25    14    18 2   
    26    15    16 2   
    27    15    17 1   
    28    17    20 2   
    29    18    19 2   
    30    19    20 1   
    31    19    32 1   
    32    20    21 1   
    33    21    22 1   
    34    21    33 1   
    35    21    35 1   
    36    22    34 1   
@<TRIPOS>SUBSTRUCTURE
     1 16B         1 TEMP              0 ****  ****    0 ROOT
