@<TRIPOS>MOLECULE
molecule
   34    35     1     0     0
SMALL
bcc


@<TRIPOS>ATOM
      1 OAA          0.0000     0.0000     0.0000 o          1 16B      -0.907167
      2 PAE          1.4800     0.0000     0.0000 p5         1 16B       1.175900
      3 OAD          2.0160     0.0000     1.5180 o          1 16B      -0.907167
      4 OAF          2.0160    -1.3160    -0.7580 o          1 16B      -0.907167
      5 O5'          2.0170     1.3130    -0.7600 os         1 16B      -0.562200
      6 C5'          1.6290     2.6390    -0.3900 c3         1 16B       0.223400
      7 C4'          2.3200     3.6470    -1.3120 c3         1 16B       0.117100
      8 O4'          1.8210     3.5050    -2.6520 os         1 16B      -0.340600
      9 C3'          2.0020     5.0820    -0.8500 c3         1 16B       0.091100
     10 O3'          3.2030     5.7770    -0.5130 oh         1 16B      -0.598800
     11 C2'          1.3250     5.7350    -2.0810 c3         1 16B       0.078100
     12 O2'          1.7780     7.0780    -2.2610 oh         1 16B      -0.603800
     13 C1'          1.8120     4.8240    -3.2410 c3         1 16B       0.287500
     14 NAM          0.8800     4.8820    -4.3690 n          1 16B      -0.342000
     15 CAL         -0.3740     4.4130    -4.2250 c          1 16B       0.822900
     16 OAK         -0.7210     3.9450    -3.1540 o          1 16B      -0.555500
     17 NAG         -1.2420     4.4540    -5.2340 nc         1 16B      -0.710100
     18 CAN          1.2840     5.4140    -5.5560 cd         1 16B       0.091600
     19 CAI          0.4120     5.4620    -6.5920 cc         1 16B      -0.462600
     20 CAH         -0.8920     4.9590    -6.4100 cc         1 16B       0.779500
     21 NAB         -1.7980     4.9950    -7.4450 nu         1 16B      -0.687700
     22 OAC         -3.1070     4.4880    -7.2570 oh         1 16B      -0.298300
     23 H3           0.5550     2.7400    -0.4840 h1         1 16B       0.027200
     24 H4           1.9220     2.8280     0.6360 h1         1 16B       0.027200
     25 H5           3.3920     3.4880    -1.3020 h1         1 16B       0.069700
     26 H6           1.3180     5.0650    -0.0100 h1         1 16B       0.059700
     27 H7           3.1600     6.0630     0.3840 ho         1 16B       0.391000
     28 H8           0.2460     5.6940    -1.9900 h1         1 16B       0.081700
     29 H9           1.0920     7.6770    -2.0170 ho         1 16B       0.388000
     30 H10          2.8110     5.1060    -3.5490 h2         1 16B       0.066700
     31 H11          2.2910     5.7940    -5.6710 h4         1 16B       0.155000
     32 H12          0.7120     5.8790    -7.5450 ha         1 16B       0.126000
     33 H13         -1.5320     5.3780    -8.3300 hn         1 16B       0.444800
     34 H14         -3.5990     4.5850    -8.0560 ho         1 16B       0.381000
@<TRIPOS>BOND
     1    22    21 1   
     2    21    20 1   
     3    20    19 1   
     4    20    17 2   
     5    19    18 2   
     6    17    15 1   
     7    18    14 1   
     8    15    14 1   
     9    15    16 2   
    10    14    13 1   
    11    12    11 1   
    12    11    13 1   
    13    11     9 1   
    14    13     8 1   
    15     8     7 1   
    16     1     2 1   
    17     9     7 1   
    18     9    10 1   
    19     6     7 1   
    20     6     5 1   
    21     5     2 1   
    22     2     3 1   
    23     2     4 1   
    24     6    23 1   
    25     6    24 1   
    26     7    25 1   
    27     9    26 1   
    28    10    27 1   
    29    11    28 1   
    30    12    29 1   
    31    13    30 1   
    32    18    31 1   
    33    19    32 1   
    34    21    33 1   
    35    22    34 1   
@<TRIPOS>SUBSTRUCTURE
     1 16B         1 TEMP              0 ****  ****    0 ROOT
