@<TRIPOS>MOLECULE
16C
  106   105     1     0     0
SMALL
bcc


@<TRIPOS>ATOM
      1 O19          2.7420    -1.2490     0.4530 o          1 16C      -0.420100
      2 C19          2.3840    -0.3030    -0.2320 c          1 16C       0.552100
      3 N2           1.8350     0.9020     0.4910 ny         1 16C      -0.665800
      4 C2           1.7990     0.7840     1.9880 c3         1 16C       0.125500
      5 C1           3.1950     0.8890     2.6290 c3         1 16C       0.114400
      6 O1           3.9170     1.9220     1.9790 oh         1 16C      -0.634800
      7 C3           0.8130     1.8390     2.5640 c3         1 16C       0.171300
      8 C4           1.1640     3.2210     2.1320 c2         1 16C      -0.305200
      9 C5           0.2790     4.1420     1.7370 c2         1 16C      -0.084200
     10 C6           0.6620     5.5120     1.3220 c3         1 16C      -0.068200
     11 C7          -0.1000     6.5680     2.1010 c3         1 16C      -0.073400
     12 C8           0.2390     7.9660     1.6270 c3         1 16C      -0.081400
     13 C9           1.5850     8.4380     2.1370 c3         1 16C      -0.078400
     14 C10          2.0290     9.7310     1.4840 c3         1 16C      -0.079400
     15 C11          2.5600     9.5500     0.0780 c3         1 16C      -0.080400
     16 C12          3.9500     8.9490     0.0510 c3         1 16C      -0.078400
     17 C13          4.4180     8.7240    -1.3710 c3         1 16C      -0.086400
     18 C14          5.8070     8.1240    -1.4090 c3         1 16C      -0.076400
     19 C15          6.2280     7.8110    -2.8280 c3         1 16C      -0.084400
     20 C16          7.6390     7.2650    -2.8790 c3         1 16C      -0.079400
     21 C17          8.0400     6.9110    -4.2950 c3         1 16C      -0.080400
     22 C18          9.4380     6.3510    -4.3510 c3         1 16C      -0.094100
     23 O3          -0.4620     1.4160     2.0940 oh         1 16C      -0.628800
     24 C20          2.4100    -0.2190    -1.7300 c3         1 16C      -0.165400
     25 C21          2.6230     1.1690    -2.2950 c3         1 16C      -0.097400
     26 C22          2.8740     1.0870    -3.7900 c3         1 16C      -0.077400
     27 C23          2.9320     2.4570    -4.4330 c3         1 16C      -0.084400
     28 C24          4.1390     3.2610    -3.9970 c3         1 16C      -0.077400
     29 C25          4.3240     4.5140    -4.8260 c3         1 16C      -0.083400
     30 C26          3.2970     5.5820    -4.5110 c3         1 16C      -0.079400
     31 C27          3.4700     6.7850    -5.4140 c3         1 16C      -0.083400
     32 C28          2.4500     7.8590    -5.0990 c3         1 16C      -0.077400
     33 C29          2.6120     9.0800    -5.9810 c3         1 16C      -0.078400
     34 C30          3.7280    10.0000    -5.5310 c3         1 16C      -0.080400
     35 C31          3.3080    10.8930    -4.3830 c3         1 16C      -0.081400
     36 C32          4.4590    11.7550    -3.9090 c3         1 16C      -0.082400
     37 C33          4.0480    12.6350    -2.7490 c3         1 16C      -0.080400
     38 C34          5.1850    13.5090    -2.2860 c3         1 16C      -0.094100
     39 HN2          0.8730     1.0750     0.1650 hn         1 16C       0.478800
     40 H2           1.3840    -0.2430     2.2310 hx         1 16C       0.130700
     41 H11          3.0700     1.1110     3.7220 h1         1 16C       0.075200
     42 H12          3.7380    -0.0870     2.4990 h1         1 16C       0.075200
     43 HO1          4.7160     2.0860     2.4980 ho         1 16C       0.451000
     44 H3           0.8570     1.7610     3.6890 h1         1 16C       0.088700
     45 H4           2.2410     3.4570     2.2130 ha         1 16C       0.157000
     46 H5          -0.8020     3.9210     1.6860 ha         1 16C       0.128000
     47 H61          1.7660     5.6750     1.4500 hc         1 16C       0.060700
     48 H62          0.4350     5.6260     0.2250 hc         1 16C       0.060700
     49 H71          0.1340     6.4720     3.1940 hc         1 16C       0.046700
     50 H72         -1.2020     6.3950     1.9770 hc         1 16C       0.046700
     51 H81          0.2230     7.9960     0.5050 hc         1 16C       0.049200
     52 H82         -0.5550     8.6740     1.9850 hc         1 16C       0.049200
     53 H91          1.5190     8.5930     3.2470 hc         1 16C       0.037700
     54 H92          2.3600     7.6460     1.9620 hc         1 16C       0.037700
     55 H101         2.8260    10.2030     2.1190 hc         1 16C       0.047200
     56 H102         1.1620    10.4440     1.4570 hc         1 16C       0.047200
     57 H111         2.5890    10.5510    -0.4320 hc         1 16C       0.041200
     58 H112         1.8610     8.9010    -0.5130 hc         1 16C       0.041200
     59 H121         3.9570     7.9740     0.6050 hc         1 16C       0.037200
     60 H122         4.6660     9.6330     0.5790 hc         1 16C       0.037200
     61 H131         4.4170     9.7010    -1.9270 hc         1 16C       0.043200
     62 H132         3.7000     8.0450    -1.9030 hc         1 16C       0.043200
     63 H141         5.8320     7.1860    -0.7940 hc         1 16C       0.037700
     64 H142         6.5380     8.8390    -0.9470 hc         1 16C       0.037700
     65 H151         5.5180     7.0630    -3.2750 hc         1 16C       0.041700
     66 H152         6.1600     8.7410    -3.4540 hc         1 16C       0.041700
     67 H161         8.3520     8.0260    -2.4660 hc         1 16C       0.039700
     68 H162         7.7150     6.3550    -2.2280 hc         1 16C       0.039700
     69 H171         7.9750     7.8270    -4.9410 hc         1 16C       0.037700
     70 H172         7.3160     6.1620    -4.7130 hc         1 16C       0.037700
     71 H181        10.1760     7.0940    -3.9620 hc         1 16C       0.035033
     72 H182         9.7140     6.0990    -5.4040 hc         1 16C       0.035033
     73 H183         9.5180     5.4240    -3.7340 hc         1 16C       0.035033
     74 HO3         -1.1330     1.9010     2.5910 ho         1 16C       0.445000
     75 H201         1.4400    -0.6500    -2.1080 hc         1 16C       0.121200
     76 H202         3.2360    -0.9050    -2.0780 hc         1 16C       0.121200
     77 H211         1.7220     1.8110    -2.1120 hc         1 16C       0.051200
     78 H212         3.5060     1.6590    -1.8050 hc         1 16C       0.051200
     79 H221         2.0520     0.4930    -4.2710 hc         1 16C       0.055700
     80 H222         3.8370     0.5410    -3.9770 hc         1 16C       0.055700
     81 H231         1.9930     3.0250    -4.1980 hc         1 16C       0.055200
     82 H232         2.9640     2.3190    -5.5480 hc         1 16C       0.055200
     83 H241         5.0600     2.6260    -4.0930 hc         1 16C       0.034200
     84 H242         4.0370     3.5400    -2.9150 hc         1 16C       0.034200
     85 H251         5.3500     4.9290    -4.6320 hc         1 16C       0.051200
     86 H252         4.2730     4.2550    -5.9170 hc         1 16C       0.051200
     87 H261         3.4000     5.9000    -3.4390 hc         1 16C       0.034200
     88 H262         2.2630     5.1660    -4.6380 hc         1 16C       0.034200
     89 H271         4.5060     7.2000    -5.2890 hc         1 16C       0.046200
     90 H272         3.3660     6.4700    -6.4850 hc         1 16C       0.046200
     91 H281         1.4190     7.4370    -5.2430 hc         1 16C       0.036700
     92 H282         2.5400     8.1550    -4.0200 hc         1 16C       0.036700
     93 H291         2.8120     8.7480    -7.0350 hc         1 16C       0.043200
     94 H292         1.6460     9.6510    -5.9940 hc         1 16C       0.043200
     95 H301         4.0440    10.6420    -6.3960 hc         1 16C       0.041700
     96 H302         4.6210     9.3930    -5.2250 hc         1 16C       0.041700
     97 H311         2.9350    10.2650    -3.5300 hc         1 16C       0.039200
     98 H312         2.4560    11.5480    -4.7070 hc         1 16C       0.039200
     99 H321         4.8240    12.3940    -4.7560 hc         1 16C       0.041200
    100 H322         5.3160    11.0990    -3.5980 hc         1 16C       0.041200
    101 H331         3.6960    11.9910    -1.8990 hc         1 16C       0.036700
    102 H332         3.1800    13.2770    -3.0560 hc         1 16C       0.036700
    103 H341         4.8610    14.1470    -1.4290 hc         1 16C       0.035033
    104 H342         5.5300    14.1770    -3.1120 hc         1 16C       0.035033
    105 H343         6.0510    12.8870    -1.9550 hc         1 16C       0.035033
    106 H23          2.4130     1.7230     0.2510 hn         1 16C       0.478800
@<TRIPOS>BOND
     1     1     2 2   
     2     2     3 1   
     3     2    24 1   
     4     3     4 1   
     5     3    39 1   
     6     3   106 1   
     7     4     5 1   
     8     4     7 1   
     9     4    40 1   
    10     5     6 1   
    11     5    41 1   
    12     5    42 1   
    13     6    43 1   
    14     7     8 1   
    15     7    23 1   
    16     7    44 1   
    17     8     9 2   
    18     8    45 1   
    19     9    10 1   
    20     9    46 1   
    21    10    11 1   
    22    10    47 1   
    23    10    48 1   
    24    11    12 1   
    25    11    49 1   
    26    11    50 1   
    27    12    13 1   
    28    12    51 1   
    29    12    52 1   
    30    13    14 1   
    31    13    53 1   
    32    13    54 1   
    33    14    15 1   
    34    14    55 1   
    35    14    56 1   
    36    15    16 1   
    37    15    57 1   
    38    15    58 1   
    39    16    17 1   
    40    16    59 1   
    41    16    60 1   
    42    17    18 1   
    43    17    61 1   
    44    17    62 1   
    45    18    19 1   
    46    18    63 1   
    47    18    64 1   
    48    19    20 1   
    49    19    65 1   
    50    19    66 1   
    51    20    21 1   
    52    20    67 1   
    53    20    68 1   
    54    21    22 1   
    55    21    69 1   
    56    21    70 1   
    57    22    71 1   
    58    22    72 1   
    59    22    73 1   
    60    23    74 1   
    61    24    25 1   
    62    24    75 1   
    63    24    76 1   
    64    25    26 1   
    65    25    77 1   
    66    25    78 1   
    67    26    27 1   
    68    26    79 1   
    69    26    80 1   
    70    27    28 1   
    71    27    81 1   
    72    27    82 1   
    73    28    29 1   
    74    28    83 1   
    75    28    84 1   
    76    29    30 1   
    77    29    85 1   
    78    29    86 1   
    79    30    31 1   
    80    30    87 1   
    81    30    88 1   
    82    31    32 1   
    83    31    89 1   
    84    31    90 1   
    85    32    33 1   
    86    32    91 1   
    87    32    92 1   
    88    33    34 1   
    89    33    93 1   
    90    33    94 1   
    91    34    35 1   
    92    34    95 1   
    93    34    96 1   
    94    35    36 1   
    95    35    97 1   
    96    35    98 1   
    97    36    37 1   
    98    36    99 1   
    99    36   100 1   
   100    37    38 1   
   101    37   101 1   
   102    37   102 1   
   103    38   103 1   
   104    38   104 1   
   105    38   105 1   
@<TRIPOS>SUBSTRUCTURE
     1 16C         1 TEMP              0 ****  ****    0 ROOT
