@<TRIPOS>MOLECULE
molecule
  105   104     1     0     0
SMALL
bcc


@<TRIPOS>ATOM
      1 O19          0.0000     0.0000     0.0000 o          1 16C      -0.613100
      2 C19          1.2130     0.0000     0.0000 c          1 16C       0.659100
      3 N2           1.8870     0.0000     1.1670 ns         1 16C      -0.577900
      4 C2           1.1530    -0.0010     2.4360 c3         1 16C       0.125700
      5 C1           0.7890    -1.4380     2.8150 c3         1 16C       0.119400
      6 O1           1.9840    -2.1840     3.0540 oh         1 16C      -0.626800
      7 C3           2.0310     0.6080     3.5320 c3         1 16C       0.175300
      8 C4           2.3630     2.0350     3.1760 c2         1 16C      -0.220200
      9 C5           2.0900     3.0000     4.0180 c2         1 16C      -0.147200
     10 C6           2.4220     4.4270     3.6610 c3         1 16C      -0.051200
     11 C7           1.1620     5.2870     3.7780 c3         1 16C      -0.077400
     12 C8           1.4980     6.7350     3.4150 c3         1 16C      -0.083400
     13 C9           0.2390     7.5960     3.5330 c3         1 16C      -0.081400
     14 C10          0.5760     9.0440     3.1710 c3         1 16C      -0.082400
     15 C11         -0.6840     9.9050     3.2890 c3         1 16C      -0.082400
     16 C12         -0.3480    11.3530     2.9260 c3         1 16C      -0.082400
     17 C13         -1.6070    12.2140     3.0440 c3         1 16C      -0.081400
     18 C14         -1.2710    13.6610     2.6810 c3         1 16C      -0.081400
     19 C15         -2.5300    14.5230     2.7990 c3         1 16C      -0.082400
     20 C16         -2.1940    15.9700     2.4360 c3         1 16C      -0.081400
     21 C17         -3.4530    16.8310     2.5530 c3         1 16C      -0.084400
     22 C18         -3.1170    18.2790     2.1920 c3         1 16C      -0.092100
     23 O3           1.3280     0.5790     4.7760 oh         1 16C      -0.601800
     24 C20          1.9680     0.0000    -1.3040 c3         1 16C      -0.157400
     25 C21          0.9730     0.0010    -2.4670 c3         1 16C      -0.066400
     26 C22          1.7390     0.0010    -3.7930 c3         1 16C      -0.085400
     27 C23          0.7440     0.0010    -4.9560 c3         1 16C      -0.080400
     28 C24          1.5100     0.0020    -6.2810 c3         1 16C      -0.082400
     29 C25          0.5160     0.0020    -7.4440 c3         1 16C      -0.081400
     30 C26          1.2820     0.0020    -8.7690 c3         1 16C      -0.082400
     31 C27          0.2880     0.0030    -9.9320 c3         1 16C      -0.081400
     32 C28          1.0530     0.0030   -11.2570 c3         1 16C      -0.082400
     33 C29          0.0600     0.0040   -12.4200 c3         1 16C      -0.082400
     34 C30          0.8250     0.0050   -13.7450 c3         1 16C      -0.081400
     35 C31         -0.1690     0.0050   -14.9080 c3         1 16C      -0.082400
     36 C32          0.5960     0.0050   -16.2330 c3         1 16C      -0.081400
     37 C33         -0.3970     0.0050   -17.3960 c3         1 16C      -0.084400
     38 C34          0.3680     0.0060   -18.7200 c3         1 16C      -0.092100
     39 HN2          2.8870    -0.0460     1.1680 hn         1 16C       0.317500
     40 H2           0.2480     0.5850     2.3310 h1         1 16C       0.102700
     41 H11          0.1810    -1.4330     3.7110 h1         1 16C       0.041700
     42 H12          0.2340    -1.8960     2.0050 h1         1 16C       0.041700
     43 HO1          1.7620    -3.0790     3.2510 ho         1 16C       0.405000
     44 H3           2.9470     0.0360     3.6210 h1         1 16C       0.054700
     45 H4           2.8260     2.2610     2.2230 ha         1 16C       0.129000
     46 H5           1.6260     2.7740     4.9700 ha         1 16C       0.141000
     47 H61          3.1790     4.8010     4.3390 hc         1 16C       0.045200
     48 H62          2.7940     4.4680     2.6450 hc         1 16C       0.045200
     49 H71          0.7900     5.2470     4.7940 hc         1 16C       0.046200
     50 H72          0.4050     4.9120     3.1000 hc         1 16C       0.046200
     51 H81          1.8700     6.7760     2.3990 hc         1 16C       0.040200
     52 H82          2.2560     7.1100     4.0920 hc         1 16C       0.040200
     53 H91         -0.1330     7.5560     4.5490 hc         1 16C       0.042200
     54 H92         -0.5190     7.2220     2.8560 hc         1 16C       0.042200
     55 H101         0.9470     9.0850     2.1540 hc         1 16C       0.040700
     56 H102         1.3340     9.4190     3.8480 hc         1 16C       0.040700
     57 H111        -1.4430     9.5290     2.6120 hc         1 16C       0.041200
     58 H112        -1.0560     9.8640     4.3050 hc         1 16C       0.041200
     59 H121         0.0240    11.3940     1.9090 hc         1 16C       0.040700
     60 H122         0.4110    11.7280     3.6020 hc         1 16C       0.040700
     61 H131        -1.9780    12.1730     4.0600 hc         1 16C       0.041200
     62 H132        -2.3650    11.8390     2.3670 hc         1 16C       0.041200
     63 H141        -0.5130    14.0360     3.3580 hc         1 16C       0.040700
     64 H142        -0.8990    13.7020     1.6650 hc         1 16C       0.040700
     65 H151        -3.2890    14.1480     2.1220 hc         1 16C       0.040700
     66 H152        -2.9020    14.4820     3.8150 hc         1 16C       0.040700
     67 H161        -1.8210    16.0110     1.4200 hc         1 16C       0.040700
     68 H162        -1.4360    16.3450     3.1140 hc         1 16C       0.040700
     69 H171        -4.2100    16.4570     1.8750 hc         1 16C       0.039700
     70 H172        -3.8260    16.7900     3.5690 hc         1 16C       0.039700
     71 H181        -2.3510    18.6500     2.8610 hc         1 16C       0.032367
     72 H182        -4.0060    18.8910     2.2860 hc         1 16C       0.032367
     73 H183        -2.7560    18.3230     1.1710 hc         1 16C       0.032367
     74 HO3          1.9110     0.2950     5.4600 ho         1 16C       0.408000
     75 H201         2.5910     0.8850    -1.3610 hc         1 16C       0.059200
     76 H202         2.5900    -0.8840    -1.3620 hc         1 16C       0.059200
     77 H211         0.3500    -0.8840    -2.4100 hc         1 16C       0.058200
     78 H212         0.3500     0.8850    -2.4100 hc         1 16C       0.058200
     79 H221         2.3620     0.8860    -3.8500 hc         1 16C       0.038700
     80 H222         2.3620    -0.8840    -3.8500 hc         1 16C       0.038700
     81 H231         0.1220    -0.8830    -4.8990 hc         1 16C       0.044200
     82 H232         0.1220     0.8860    -4.8980 hc         1 16C       0.044200
     83 H241         2.1320     0.8880    -6.3380 hc         1 16C       0.040700
     84 H242         2.1340    -0.8820    -6.3380 hc         1 16C       0.040700
     85 H251        -0.1060    -0.8840    -7.3870 hc         1 16C       0.041700
     86 H252        -0.1080     0.8850    -7.3870 hc         1 16C       0.041700
     87 H261         1.9050     0.8870    -8.8250 hc         1 16C       0.040700
     88 H262         1.9050    -0.8820    -8.8260 hc         1 16C       0.040700
     89 H271        -0.3350    -0.8810    -9.8750 hc         1 16C       0.041700
     90 H272        -0.3340     0.8880    -9.8740 hc         1 16C       0.041700
     91 H281         1.6770     0.8870   -11.3140 hc         1 16C       0.040700
     92 H282         1.6760    -0.8810   -11.3150 hc         1 16C       0.040700
     93 H291        -0.5630    -0.8810   -12.3630 hc         1 16C       0.040700
     94 H292        -0.5630     0.8880   -12.3620 hc         1 16C       0.040700
     95 H301         1.4480     0.8890   -13.8010 hc         1 16C       0.040700
     96 H302         1.4470    -0.8800   -13.8020 hc         1 16C       0.040700
     97 H311        -0.7910     0.8900   -14.8510 hc         1 16C       0.040700
     98 H312        -0.7920    -0.8790   -14.8510 hc         1 16C       0.040700
     99 H321         1.2200     0.8890   -16.2900 hc         1 16C       0.040700
    100 H322         1.2180    -0.8800   -16.2900 hc         1 16C       0.040700
    101 H331        -1.0200    -0.8790   -17.3390 hc         1 16C       0.039700
    102 H332        -1.0200     0.8900   -17.3380 hc         1 16C       0.039700
    103 H341         1.0090     0.8780   -18.7660 hc         1 16C       0.032367
    104 H342         0.9710    -0.8910   -18.7890 hc         1 16C       0.032367
    105 H343        -0.3360     0.0320   -19.5440 hc         1 16C       0.032367
@<TRIPOS>BOND
     1     1     2 2
     2     2     3 1
     3     2    24 1
     4     3     4 1
     5     3    39 1
     6     4     5 1
     7     4     7 1
     8     4    40 1
     9     5     6 1
    10     5    41 1
    11     5    42 1
    12     6    43 1
    13     7     8 1
    14     7    23 1
    15     7    44 1
    16     8     9 2
    17     8    45 1
    18     9    10 1
    19     9    46 1
    20    10    11 1
    21    10    47 1
    22    10    48 1
    23    11    12 1
    24    11    49 1
    25    11    50 1
    26    12    13 1
    27    12    51 1
    28    12    52 1
    29    13    14 1
    30    13    53 1
    31    13    54 1
    32    14    15 1
    33    14    55 1
    34    14    56 1
    35    15    16 1
    36    15    57 1
    37    15    58 1
    38    16    17 1
    39    16    59 1
    40    16    60 1
    41    17    18 1
    42    17    61 1
    43    17    62 1
    44    18    19 1
    45    18    63 1
    46    18    64 1
    47    19    20 1
    48    19    65 1
    49    19    66 1
    50    20    21 1
    51    20    67 1
    52    20    68 1
    53    21    22 1
    54    21    69 1
    55    21    70 1
    56    22    71 1
    57    22    72 1
    58    22    73 1
    59    23    74 1
    60    24    25 1
    61    24    75 1
    62    24    76 1
    63    25    26 1
    64    25    77 1
    65    25    78 1
    66    26    27 1
    67    26    79 1
    68    26    80 1
    69    27    28 1
    70    27    81 1
    71    27    82 1
    72    28    29 1
    73    28    83 1
    74    28    84 1
    75    29    30 1
    76    29    85 1
    77    29    86 1
    78    30    31 1
    79    30    87 1
    80    30    88 1
    81    31    32 1
    82    31    89 1
    83    31    90 1
    84    32    33 1
    85    32    91 1
    86    32    92 1
    87    33    34 1
    88    33    93 1
    89    33    94 1
    90    34    35 1
    91    34    95 1
    92    34    96 1
    93    35    36 1
    94    35    97 1
    95    35    98 1
    96    36    37 1
    97    36    99 1
    98    36   100 1
    99    37    38 1
   100    37   101 1
   101    37   102 1
   102    38   103 1
   103    38   104 1
   104    38   105 1
@<TRIPOS>SUBSTRUCTURE
     1 16C         1 TEMP              0 ****  ****    0 ROOT
