@<TRIPOS>MOLECULE
16C
  105   106     1     0     0
SMALL
bcc


@<TRIPOS>ATOM
      1 O19          0.0000     0.0000     0.0000 o          1 16C      -0.415000
      2 C19          1.2130     0.0000     0.0000 c2         1 16C       0.216000
      3 N2           1.8870     0.0000     1.1670 ns         1 16C       0.022000
      4 C2           1.1530    -0.0010     2.4360 c3         1 16C      -0.104000
      5 C1           0.7890    -1.4380     2.8150 c3         1 16C       0.047000
      6 O1           1.9840    -2.1840     3.0540 oh         1 16C      -0.341000
      7 C3           2.0310     0.6080     3.5320 DU         1 16C       0.192000
      8 C4           2.3630     2.0350     3.1760 c2         1 16C      -0.163000
      9 C5           2.0900     3.0000     4.0180 c2         1 16C      -0.068000
     10 C6           2.4220     4.4270     3.6610 DU         1 16C       0.009000
     11 C7           1.1620     5.2870     3.7780 c3         1 16C      -0.138000
     12 C8           1.4980     6.7350     3.4150 c3         1 16C      -0.111000
     13 C9           0.2390     7.5960     3.5330 c3         1 16C      -0.107000
     14 C10          0.5760     9.0440     3.1710 c3         1 16C      -0.108000
     15 C11         -0.6840     9.9050     3.2890 c3         1 16C      -0.108000
     16 C12         -0.3480    11.3530     2.9260 c3         1 16C      -0.108000
     17 C13         -1.6070    12.2140     3.0440 c3         1 16C      -0.108000
     18 C14         -1.2710    13.6610     2.6810 c3         1 16C      -0.108000
     19 C15         -2.5300    14.5230     2.7990 c3         1 16C      -0.108000
     20 C16         -2.1940    15.9700     2.4360 c3         1 16C      -0.108000
     21 C17         -3.4530    16.8310     2.5530 c3         1 16C      -0.107000
     22 C18         -3.1170    18.2790     2.1920 c3         1 16C      -0.112000
     23 O3           1.3280     0.5790     4.7760 oh         1 16C      -0.293000
     24 C20          1.9680     0.0000    -1.3040 c3         1 16C      -0.126000
     25 C21          0.9730     0.0010    -2.4670 c3         1 16C      -0.094000
     26 C22          1.7390     0.0010    -3.7930 c3         1 16C      -0.111000
     27 C23          0.7440     0.0010    -4.9560 c3         1 16C      -0.106000
     28 C24          1.5100     0.0020    -6.2810 c3         1 16C      -0.108000
     29 C25          0.5160     0.0020    -7.4440 c3         1 16C      -0.108000
     30 C26          1.2820     0.0020    -8.7690 c3         1 16C      -0.108000
     31 C27          0.2880     0.0030    -9.9320 c3         1 16C      -0.108000
     32 C28          1.0530     0.0030   -11.2570 c3         1 16C      -0.108000
     33 C29          0.0600     0.0040   -12.4200 c3         1 16C      -0.108000
     34 C30          0.8250     0.0050   -13.7450 c3         1 16C      -0.108000
     35 C31         -0.1690     0.0050   -14.9080 c3         1 16C      -0.108000
     36 C32          0.5960     0.0050   -16.2330 c3         1 16C      -0.109000
     37 C33         -0.3970     0.0050   -17.3960 c3         1 16C      -0.107000
     38 C34          0.3680     0.0060   -18.7200 c3         1 16C      -0.112000
     39 HN2          2.8870    -0.0440     1.1680 hn         1 16C       0.086000
     40 H2           0.2480     0.5850     2.3310 h1         1 16C       0.122000
     41 H11          0.2340    -1.8960     2.0050 h1         1 16C       0.047000
     42 H12          0.1810    -1.4330     3.7110 h1         1 16C       0.047000
     43 HO1          1.7640    -3.0870     3.2150 ho         1 16C       0.195000
     44 H3           2.9470     0.0360     3.6210 ha         1 16C       0.042000
     45 H4           2.9510     1.4190     3.8450 DU         1 16C      -0.005000
     46 H5           3.0830     3.4300     4.0730 DU         1 16C       0.023000
     47 H61          2.7940     4.4680     2.6450 ha         1 16C       0.057000
     48 H62          3.1790     4.8010     4.3390 ha         1 16C       0.057000
     49 H71          0.4050     4.9120     3.1000 hc         1 16C       0.066000
     50 H72          0.7900     5.2470     4.7940 hc         1 16C       0.066000
     51 H81          1.8700     6.7760     2.3990 hc         1 16C       0.051500
     52 H82          2.2560     7.1100     4.0920 hc         1 16C       0.051500
     53 H91         -0.5190     7.2220     2.8560 hc         1 16C       0.056000
     54 H92         -0.1330     7.5560     4.5490 hc         1 16C       0.056000
     55 H101         1.3340     9.4190     3.8480 hc         1 16C       0.053500
     56 H102         0.9470     9.0850     2.1540 hc         1 16C       0.053500
     57 H111        -1.4430     9.5290     2.6120 hc         1 16C       0.054500
     58 H112        -1.0560     9.8640     4.3050 hc         1 16C       0.054500
     59 H121         0.0240    11.3940     1.9090 hc         1 16C       0.053500
     60 H122         0.4110    11.7280     3.6020 hc         1 16C       0.053500
     61 H131        -2.3650    11.8390     2.3670 hc         1 16C       0.054000
     62 H132        -1.9780    12.1730     4.0600 hc         1 16C       0.054000
     63 H141        -0.8990    13.7020     1.6650 hc         1 16C       0.053500
     64 H142        -0.5130    14.0360     3.3580 hc         1 16C       0.053500
     65 H151        -2.9020    14.4820     3.8150 hc         1 16C       0.054000
     66 H152        -3.2890    14.1480     2.1220 hc         1 16C       0.054000
     67 H161        -1.8210    16.0110     1.4200 hc         1 16C       0.054000
     68 H162        -1.4360    16.3450     3.1140 hc         1 16C       0.054000
     69 H171        -3.8260    16.7900     3.5690 hc         1 16C       0.051000
     70 H172        -4.2100    16.4570     1.8750 hc         1 16C       0.051000
     71 H181        -2.3600    18.6550     2.8700 hc         1 16C       0.039333
     72 H182        -4.0090    18.8880     2.2740 hc         1 16C       0.039333
     73 H183        -2.7440    18.3210     1.1750 hc         1 16C       0.039333
     74 HO3          1.9120     0.2960     5.4600 ho         1 16C       0.194000
     75 H201         2.5900    -0.8840    -1.3620 hc         1 16C       0.065500
     76 H202         2.5910     0.8850    -1.3610 hc         1 16C       0.065500
     77 H211         0.3500    -0.8840    -2.4100 hc         1 16C       0.070000
     78 H212         0.3500     0.8850    -2.4100 hc         1 16C       0.070000
     79 H221         2.3620    -0.8840    -3.8500 hc         1 16C       0.050500
     80 H222         2.3620     0.8860    -3.8500 hc         1 16C       0.050500
     81 H231         0.1220     0.8860    -4.8980 hc         1 16C       0.056500
     82 H232         0.1220    -0.8830    -4.8990 hc         1 16C       0.056500
     83 H241         2.1320     0.8880    -6.3380 hc         1 16C       0.053000
     84 H242         2.1340    -0.8810    -6.3380 hc         1 16C       0.053000
     85 H251        -0.1060    -0.8840    -7.3870 hc         1 16C       0.054500
     86 H252        -0.1080     0.8850    -7.3870 hc         1 16C       0.054500
     87 H261         1.9050     0.8870    -8.8250 hc         1 16C       0.053000
     88 H262         1.9050    -0.8820    -8.8260 hc         1 16C       0.053000
     89 H271        -0.3340     0.8880    -9.8740 hc         1 16C       0.054000
     90 H272        -0.3350    -0.8810    -9.8750 hc         1 16C       0.054000
     91 H281         1.6770     0.8870   -11.3140 hc         1 16C       0.054000
     92 H282         1.6760    -0.8810   -11.3150 hc         1 16C       0.054000
     93 H291        -0.5630     0.8880   -12.3620 hc         1 16C       0.054000
     94 H292        -0.5630    -0.8810   -12.3630 hc         1 16C       0.054000
     95 H301         1.4480     0.8890   -13.8010 hc         1 16C       0.054000
     96 H302         1.4470    -0.8800   -13.8020 hc         1 16C       0.054000
     97 H311        -0.7920    -0.8790   -14.8510 hc         1 16C       0.054000
     98 H312        -0.7910     0.8900   -14.8510 hc         1 16C       0.054000
     99 H321         1.2180    -0.8800   -16.2900 hc         1 16C       0.054000
    100 H322         1.2200     0.8890   -16.2900 hc         1 16C       0.054000
    101 H331        -1.0200    -0.8790   -17.3390 hc         1 16C       0.051000
    102 H332        -1.0200     0.8900   -17.3380 hc         1 16C       0.051000
    103 H341        -0.3360     0.0070   -19.5440 hc         1 16C       0.039333
    104 H342         0.9900    -0.8790   -18.7780 hc         1 16C       0.039333
    105 H343         0.9910     0.8900   -18.7770 hc         1 16C       0.039333
@<TRIPOS>BOND
     1     1     2 1   
     2     2     3 1   
     3     2    24 1   
     4     3     4 1   
     5     3    39 1   
     6     4     5 1   
     7     4     7 1   
     8     4    40 1   
     9     5     6 1   
    10     5    41 1   
    11     5    42 1   
    12     6    43 1   
    13     7     8 1   
    14     7    23 1   
    15     7    44 1   
    16     7    45 1   
    17     8     9 1   
    18     8    45 1   
    19     9    10 1   
    20     9    46 1   
    21    10    11 1   
    22    10    46 1   
    23    10    47 1   
    24    10    48 1   
    25    11    12 1   
    26    11    49 1   
    27    11    50 1   
    28    12    13 1   
    29    12    51 1   
    30    12    52 1   
    31    13    14 1   
    32    13    53 1   
    33    13    54 1   
    34    14    15 1   
    35    14    55 1   
    36    14    56 1   
    37    15    16 1   
    38    15    57 1   
    39    15    58 1   
    40    16    17 1   
    41    16    59 1   
    42    16    60 1   
    43    17    18 1   
    44    17    61 1   
    45    17    62 1   
    46    18    19 1   
    47    18    63 1   
    48    18    64 1   
    49    19    20 1   
    50    19    65 1   
    51    19    66 1   
    52    20    21 1   
    53    20    67 1   
    54    20    68 1   
    55    21    22 1   
    56    21    69 1   
    57    21    70 1   
    58    22    71 1   
    59    22    72 1   
    60    22    73 1   
    61    23    74 1   
    62    24    25 1   
    63    24    75 1   
    64    24    76 1   
    65    25    26 1   
    66    25    77 1   
    67    25    78 1   
    68    26    27 1   
    69    26    79 1   
    70    26    80 1   
    71    27    28 1   
    72    27    81 1   
    73    27    82 1   
    74    28    29 1   
    75    28    83 1   
    76    28    84 1   
    77    29    30 1   
    78    29    85 1   
    79    29    86 1   
    80    30    31 1   
    81    30    87 1   
    82    30    88 1   
    83    31    32 1   
    84    31    89 1   
    85    31    90 1   
    86    32    33 1   
    87    32    91 1   
    88    32    92 1   
    89    33    34 1   
    90    33    93 1   
    91    33    94 1   
    92    34    35 1   
    93    34    95 1   
    94    34    96 1   
    95    35    36 1   
    96    35    97 1   
    97    35    98 1   
    98    36    37 1   
    99    36    99 1   
   100    36   100 1   
   101    37    38 1   
   102    37   101 1   
   103    37   102 1   
   104    38   103 1   
   105    38   104 1   
   106    38   105 1   
@<TRIPOS>SUBSTRUCTURE
     1 16C         1 TEMP              0 ****  ****    0 ROOT
