@<TRIPOS>MOLECULE
molecule
   26    25     1     0     0
SMALL
bcc


@<TRIPOS>ATOM
      1 N1           0.0000     0.0000     0.0000 nz         1 16D      -0.809600
      2 C1           1.4690     0.0000     0.0000 c3         1 16D       0.095800
      3 C2           1.9800     0.0000     1.4420 c3         1 16D      -0.111900
      4 C3           3.5090    -0.0000     1.4420 c3         1 16D      -0.073400
      5 C4           4.0200    -0.0000     2.8830 c3         1 16D      -0.073400
      6 C5           5.5490    -0.0000     2.8830 c3         1 16D      -0.111900
      7 C6           6.0600     0.0000     4.3240 c3         1 16D       0.095800
      8 N2           7.5290    -0.0000     4.3240 nz         1 16D      -0.809600
      9 HN11        -0.3340    -0.8170     0.4720 hn         1 16D       0.463800
     10 HN12        -0.3340     0.8170     0.4720 hn         1 16D       0.463800
     11 H11          1.8300    -0.8840    -0.5110 hx         1 16D       0.116700
     12 H12          1.8300     0.8840    -0.5110 hx         1 16D       0.116700
     13 H21          1.6190     0.8840     1.9520 hc         1 16D       0.071700
     14 H22          1.6190    -0.8840     1.9520 hc         1 16D       0.071700
     15 H31          3.8700    -0.8840     0.9310 hc         1 16D       0.065700
     16 H32          3.8700     0.8840     0.9310 hc         1 16D       0.065700
     17 H41          3.6600    -0.8840     3.3930 hc         1 16D       0.065700
     18 H42          3.6600     0.8840     3.3930 hc         1 16D       0.065700
     19 H51          5.9100     0.8840     2.3720 hc         1 16D       0.071700
     20 H52          5.9100    -0.8840     2.3720 hc         1 16D       0.071700
     21 H61          5.6990    -0.8840     4.8350 hx         1 16D       0.116700
     22 H62          5.6990     0.8840     4.8350 hx         1 16D       0.116700
     23 HN21         7.8630    -0.0000     5.2680 hn         1 16D       0.463800
     24 HN22         7.8630    -0.8170     3.8530 hn         1 16D       0.463800
     25 H13         -0.3340     0.0220    -0.9430 hn         1 16D       0.463800
     26 H23          7.8630     0.8190     3.8560 hn         1 16D       0.463800
@<TRIPOS>BOND
     1     1     2 1
     2     1     9 1
     3     1    10 1
     4     2     3 1
     5     2    11 1
     6     2    12 1
     7     3     4 1
     8     3    13 1
     9     3    14 1
    10     4     5 1
    11     4    15 1
    12     4    16 1
    13     5     6 1
    14     5    17 1
    15     5    18 1
    16     6     7 1
    17     6    19 1
    18     6    20 1
    19     7     8 1
    20     7    21 1
    21     7    22 1
    22     8    23 1
    23     8    24 1
    24    25     1 1
    25    26     8 1
@<TRIPOS>SUBSTRUCTURE
     1 16D         1 TEMP              0 ****  ****    0 ROOT
