@<TRIPOS>MOLECULE
16D
   26    25     1     0     0
SMALL
bcc


@<TRIPOS>ATOM
      1 N1           0.1900     0.2220    -0.5730 nz         1 16D      -0.839600
      2 C1           1.5700     0.0350    -0.0350 c3         1 16D       0.102800
      3 C2           1.6590     0.1160     1.4820 c3         1 16D      -0.117400
      4 C3           1.2070    -1.1530     2.1750 c3         1 16D      -0.088400
      5 C4           1.5000    -1.0870     3.6650 c3         1 16D      -0.088400
      6 C5           1.0490    -2.3570     4.3580 c3         1 16D      -0.117400
      7 C6           1.1360    -2.2750     5.8750 c3         1 16D       0.102800
      8 N2           2.5160    -2.4590     6.4140 nz         1 16D      -0.839600
      9 HN11        -0.1710     1.1470    -0.3130 hn         1 16D       0.467133
     10 HN12         0.2030     0.1490    -1.5980 hn         1 16D       0.467133
     11 H11          1.9420    -0.9700    -0.3960 hx         1 16D       0.122200
     12 H12          2.2180     0.8420    -0.4920 hx         1 16D       0.122200
     13 H21          2.7440     0.3040     1.7230 hc         1 16D       0.092200
     14 H22          1.0850     0.9980     1.8740 hc         1 16D       0.092200
     15 H31          0.1060    -1.3070     2.0220 hc         1 16D       0.056700
     16 H32          1.7360    -2.0390     1.7320 hc         1 16D       0.056700
     17 H41          0.9710    -0.2010     4.1080 hc         1 16D       0.056700
     18 H42          2.6010    -0.9320     3.8190 hc         1 16D       0.056700
     19 H51         -0.0350    -2.5470     4.1160 hc         1 16D       0.092200
     20 H52          1.6250    -3.2380     3.9660 hc         1 16D       0.092200
     21 H61          0.4910    -3.0840     6.3320 hx         1 16D       0.122200
     22 H62          0.7610    -1.2720     6.2350 hx         1 16D       0.122200
     23 HN21         3.1460    -1.7430     6.0390 hn         1 16D       0.467133
     24 HN22         2.8800    -3.3840     6.1540 hn         1 16D       0.467133
     25 H13         -0.4410    -0.4920    -0.1970 hn         1 16D       0.467133
     26 H23          2.5020    -2.3860     7.4390 hn         1 16D       0.467133
@<TRIPOS>BOND
     1     1     2 1   
     2     1     9 1   
     3     1    10 1   
     4     1    25 1   
     5     2     3 1   
     6     2    11 1   
     7     2    12 1   
     8     3     4 1   
     9     3    13 1   
    10     3    14 1   
    11     4     5 1   
    12     4    15 1   
    13     4    16 1   
    14     5     6 1   
    15     5    17 1   
    16     5    18 1   
    17     6     7 1   
    18     6    19 1   
    19     6    20 1   
    20     7     8 1   
    21     7    21 1   
    22     7    22 1   
    23     8    23 1   
    24     8    24 1   
    25     8    26 1   
@<TRIPOS>SUBSTRUCTURE
     1 16D         1 TEMP              0 ****  ****    0 ROOT
