@<TRIPOS>MOLECULE
16E
   63    62     1     0     0
SMALL
bcc


@<TRIPOS>ATOM
      1 O01          0.0000     0.0000     0.0000 o          1 16E      -0.691100
      2 C02          1.2130     0.0000     0.0000 c          1 16E       0.559100
      3 N03          1.8860     0.0000     1.1680 ns         1 16E      -0.106900
      4 C04          1.1540     0.0030     2.4360 c3         1 16E      -0.110300
      5 C05          2.0300    -0.6070     3.5320 c3         1 16E      -0.012400
      6 C06          2.2900    -2.0820     3.2170 c3         1 16E      -0.142400
      7 C07          3.1540    -2.6810     4.2960 c          1 16E       0.983600
      8 O08          3.5240    -2.0000     5.2230 o          1 16E      -0.923300
      9 C09          0.7960     1.4180     2.8070 c          1 16E       0.988600
     10 O10          1.1200     2.3320     2.0870 o          1 16E      -0.912800
     11 O11          0.1180     1.6640     3.9390 o          1 16E      -0.912800
     12 C12          1.9660    -0.0090    -1.3050 c3         1 16E      -0.104400
     13 C13          0.9720    -0.0150    -2.4680 c3         1 16E      -0.014400
     14 C14          1.7370    -0.0230    -3.7930 c3         1 16E      -0.035400
     15 C15          0.7430    -0.0300    -4.9550 c3         1 16E      -0.029400
     16 C16          1.5090    -0.0380    -6.2810 c3         1 16E      -0.031400
     17 C17          0.5140    -0.0440    -7.4440 c3         1 16E      -0.030400
     18 C18          1.2800    -0.0520    -8.7690 c3         1 16E      -0.030400
     19 C19          0.2850    -0.0590    -9.9320 c3         1 16E      -0.030400
     20 C20          1.0510    -0.0670   -11.2560 c3         1 16E      -0.031400
     21 C21          0.0560    -0.0730   -12.4200 c3         1 16E      -0.031400
     22 C22          0.8220    -0.0820   -13.7440 c3         1 16E      -0.030400
     23 C23         -0.1730    -0.0880   -14.9070 c3         1 16E      -0.038400
     24 C24          0.5930    -0.0970   -16.2330 c3         1 16E      -0.016400
     25 C25         -0.4020    -0.1030   -17.3950 c3         1 16E      -0.134400
     26 C26          0.3520    -0.1100   -18.7010 c          1 16E       0.981600
     27 O27          1.5610    -0.1120   -18.7000 o          1 16E      -0.910800
     28 O28         -0.3180    -0.1170   -19.8630 o          1 16E      -0.910800
     29 OXT          3.5120    -3.9730     4.2290 o          1 16E      -0.923300
     30 H03          2.8870     0.0310     1.1680 hn         1 16E       0.153500
     31 H121         2.5870    -0.8950    -1.3560 hc         1 16E       0.015700
     32 H122         2.5900     0.8740    -1.3670 hc         1 16E       0.015700
     33 H04          0.2480    -0.5830     2.3310 h1         1 16E       0.050700
     34 H051         2.9740    -0.0760     3.5770 hc         1 16E       0.034700
     35 H052         1.5240    -0.5250     4.4870 hc         1 16E       0.034700
     36 H061         2.7950    -2.1640     2.2630 hc         1 16E      -0.000300
     37 H062         1.3470    -2.6130     3.1740 hc         1 16E      -0.000300
     38 H131         0.3500     0.8710    -2.4160 hc         1 16E       0.028700
     39 H132         0.3480    -0.8980    -2.4060 hc         1 16E       0.028700
     40 H141         2.3600     0.8600    -3.8550 hc         1 16E       0.007200
     41 H142         2.3590    -0.9090    -3.8450 hc         1 16E       0.007200
     42 H151         0.1200    -0.9140    -4.8930 hc         1 16E       0.014700
     43 H152         0.1210     0.8550    -4.9030 hc         1 16E       0.014700
     44 H161         2.1320     0.8460    -6.3440 hc         1 16E       0.011200
     45 H162         2.1310    -0.9230    -6.3330 hc         1 16E       0.011200
     46 H171        -0.1080     0.8410    -7.3910 hc         1 16E       0.013200
     47 H172        -0.1090    -0.9280    -7.3810 hc         1 16E       0.013200
     48 H181         1.9030     0.8320    -8.8320 hc         1 16E       0.012700
     49 H182         1.9020    -0.9370    -8.8210 hc         1 16E       0.012700
     50 H191        -0.3370    -0.9430    -9.8690 hc         1 16E       0.012700
     51 H192        -0.3370     0.8260    -9.8800 hc         1 16E       0.012700
     52 H201         1.6740     0.8160   -11.3190 hc         1 16E       0.012700
     53 H202         1.6730    -0.9530   -11.3080 hc         1 16E       0.012700
     54 H211        -0.5670    -0.9570   -12.3580 hc         1 16E       0.010700
     55 H212        -0.5660     0.8120   -12.3680 hc         1 16E       0.010700
     56 H221         1.4450     0.8020   -13.8070 hc         1 16E       0.012700
     57 H222         1.4440    -0.9670   -13.7970 hc         1 16E       0.012700
     58 H231        -0.7950     0.7980   -14.8550 hc         1 16E       0.003700
     59 H232        -0.7970    -0.9710   -14.8440 hc         1 16E       0.003700
     60 H241         1.2170     0.7870   -16.2950 hc         1 16E       0.019700
     61 H242         1.2150    -0.9820   -16.2850 hc         1 16E       0.019700
     62 H251        -1.0240     0.7830   -17.3430 hc         1 16E       0.003700
     63 H252        -1.0250    -0.9870   -17.3330 hc         1 16E       0.003700
@<TRIPOS>BOND
     1     1     2 2   
     2     2     3 1   
     3     2    12 1   
     4     3     4 1   
     5     3    30 1   
     6     4     5 1   
     7     4     9 1   
     8     4    33 1   
     9     5     6 1   
    10     5    34 1   
    11     5    35 1   
    12     6     7 1   
    13     6    36 1   
    14     6    37 1   
    15     7     8 1   
    16     7    29 1   
    17     9    10 1   
    18     9    11 1   
    19    12    13 1   
    20    12    31 1   
    21    12    32 1   
    22    13    14 1   
    23    13    38 1   
    24    13    39 1   
    25    14    15 1   
    26    14    40 1   
    27    14    41 1   
    28    15    16 1   
    29    15    42 1   
    30    15    43 1   
    31    16    17 1   
    32    16    44 1   
    33    16    45 1   
    34    17    18 1   
    35    17    46 1   
    36    17    47 1   
    37    18    19 1   
    38    18    48 1   
    39    18    49 1   
    40    19    20 1   
    41    19    50 1   
    42    19    51 1   
    43    20    21 1   
    44    20    52 1   
    45    20    53 1   
    46    21    22 1   
    47    21    54 1   
    48    21    55 1   
    49    22    23 1   
    50    22    56 1   
    51    22    57 1   
    52    23    24 1   
    53    23    58 1   
    54    23    59 1   
    55    24    25 1   
    56    24    60 1   
    57    24    61 1   
    58    25    26 1   
    59    25    62 1   
    60    25    63 1   
    61    26    27 1   
    62    26    28 1   
@<TRIPOS>SUBSTRUCTURE
     1 16E         1 TEMP              0 ****  ****    0 ROOT
