@<TRIPOS>MOLECULE
16E
   64    63     1     0     0
SMALL
bcc


@<TRIPOS>ATOM
      1 O01          0.0730     0.6090     0.7650 o          1 16E      -0.704100
      2 C02          1.1790     0.1760     0.3470 c          1 16E       0.653100
      3 N03          2.1810    -0.2450     1.1630 ns         1 16E      -0.519900
      4 C04          2.1470    -0.3610     2.6040 c3         1 16E      -0.043300
      5 C05          0.9000    -1.0530     3.1720 c3         1 16E      -0.069400
      6 C06         -0.1220    -0.0450     3.6680 c3         1 16E      -0.177400
      7 C07         -1.5130    -0.5940     3.6000 c          1 16E       0.639100
      8 O08         -2.2560    -0.8960     4.5390 o          1 16E      -0.548000
      9 C09          3.4300    -1.1220     3.1360 c          1 16E       0.916600
     10 O10          3.5400    -1.2010     4.3860 o          1 16E      -0.822300
     11 O11          4.2530    -1.5790     2.2960 o          1 16E      -0.822300
     12 C12          1.4330     0.1210    -1.1570 c3         1 16E      -0.154400
     13 C13          2.3040     1.2620    -1.6360 c3         1 16E      -0.071400
     14 C14          1.5190     2.5490    -1.7870 c3         1 16E      -0.082400
     15 C15          2.3900     3.6620    -2.3300 c3         1 16E      -0.078400
     16 C16          1.5780     4.9040    -2.6300 c3         1 16E      -0.078400
     17 C17          2.4210     5.9680    -3.3010 c3         1 16E      -0.078400
     18 C18          1.5910     7.1760    -3.6790 c3         1 16E      -0.079400
     19 C19          2.4080     8.1910    -4.4500 c3         1 16E      -0.078400
     20 C20          1.5610     9.3700    -4.8810 c3         1 16E      -0.076400
     21 C21          2.3270    10.3560    -5.7380 c3         1 16E      -0.080400
     22 C22          3.2230    11.2640    -4.9220 c3         1 16E      -0.073400
     23 C23          4.0270    12.2100    -5.7900 c3         1 16E      -0.079400
     24 C24          3.1960    13.3410    -6.3620 c3         1 16E      -0.065400
     25 C25          4.0410    14.3070    -7.1570 c3         1 16E      -0.192400
     26 C26          3.1780    15.3500    -7.8880 c          1 16E       0.907600
     27 O27          3.5420    16.5600    -7.8300 o          1 16E      -0.855800
     28 O28          2.1600    14.9550    -8.5290 o          1 16E      -0.855800
     29 OXT         -2.0860    -0.7890     2.3750 oh         1 16E      -0.614100
     30 H03          3.0060    -0.6410     0.7540 hn         1 16E       0.339500
     31 H121         0.4340     0.1590    -1.6660 hc         1 16E       0.057200
     32 H122         1.9150    -0.8560    -1.4230 hc         1 16E       0.057200
     33 H04          2.2040     0.6820     3.0340 h1         1 16E       0.047700
     34 H051         1.2260    -1.6960     4.0340 hc         1 16E       0.059200
     35 H052         0.4320    -1.7210     2.4030 hc         1 16E       0.059200
     36 H061        -0.0860     0.8820     3.0300 hc         1 16E       0.082700
     37 H062         0.1090     0.2440     4.7260 hc         1 16E       0.082700
     38 H131         3.1590     1.4210    -0.9280 hc         1 16E       0.043700
     39 H132         2.7460     0.9830    -2.6300 hc         1 16E       0.043700
     40 H141         1.0910     2.8430    -0.7920 hc         1 16E       0.048200
     41 H142         0.6530     2.3800    -2.4800 hc         1 16E       0.048200
     42 H151         3.1960     3.9080    -1.5890 hc         1 16E       0.036700
     43 H152         2.9000     3.3150    -3.2680 hc         1 16E       0.036700
     44 H161         1.1450     5.3100    -1.6780 hc         1 16E       0.038700
     45 H162         0.7160     4.6360    -3.2960 hc         1 16E       0.038700
     46 H171         2.8980     5.5400    -4.2230 hc         1 16E       0.037200
     47 H172         3.2510     6.2800    -2.6150 hc         1 16E       0.037200
     48 H181         0.7160     6.8500    -4.3010 hc         1 16E       0.036200
     49 H182         1.1760     7.6520    -2.7520 hc         1 16E       0.036200
     50 H191         3.2600     8.5500    -3.8160 hc         1 16E       0.038200
     51 H192         2.8550     7.7010    -5.3550 hc         1 16E       0.038200
     52 H201         1.1570     9.8920    -3.9740 hc         1 16E       0.033200
     53 H202         0.6790     8.9910    -5.4640 hc         1 16E       0.033200
     54 H211         2.9440     9.8000    -6.4930 hc         1 16E       0.045200
     55 H212         1.5980    10.9890    -6.3110 hc         1 16E       0.045200
     56 H221         3.9260    10.6360    -4.3130 hc         1 16E       0.026700
     57 H222         2.5980    11.8550    -4.2030 hc         1 16E       0.026700
     58 H231         4.5040    11.6370    -6.6280 hc         1 16E       0.025200
     59 H232         4.8580    12.6450    -5.1730 hc         1 16E       0.025200
     60 H241         2.6860    13.8910    -5.5290 hc         1 16E       0.043200
     61 H242         2.3910    12.9340    -7.0310 hc         1 16E       0.043200
     62 H251         4.6300    13.7510    -7.9310 hc         1 16E       0.018200
     63 H252         4.7660    14.8320    -6.4870 hc         1 16E       0.018200
     64 H032        -1.4740    -0.4910     1.6790 ho         1 16E       0.459000
@<TRIPOS>BOND
     1     1     2 2   
     2     2     3 1   
     3     2    12 1   
     4     3     4 1   
     5     3    30 1   
     6     4     5 1   
     7     4     9 1   
     8     4    33 1   
     9     5     6 1   
    10     5    34 1   
    11     5    35 1   
    12     6     7 1   
    13     6    36 1   
    14     6    37 1   
    15     7     8 2   
    16     7    29 1   
    17     9    10 1   
    18     9    11 1   
    19    12    13 1   
    20    12    31 1   
    21    12    32 1   
    22    13    14 1   
    23    13    38 1   
    24    13    39 1   
    25    14    15 1   
    26    14    40 1   
    27    14    41 1   
    28    15    16 1   
    29    15    42 1   
    30    15    43 1   
    31    16    17 1   
    32    16    44 1   
    33    16    45 1   
    34    17    18 1   
    35    17    46 1   
    36    17    47 1   
    37    18    19 1   
    38    18    48 1   
    39    18    49 1   
    40    19    20 1   
    41    19    50 1   
    42    19    51 1   
    43    20    21 1   
    44    20    52 1   
    45    20    53 1   
    46    21    22 1   
    47    21    54 1   
    48    21    55 1   
    49    22    23 1   
    50    22    56 1   
    51    22    57 1   
    52    23    24 1   
    53    23    58 1   
    54    23    59 1   
    55    24    25 1   
    56    24    60 1   
    57    24    61 1   
    58    25    26 1   
    59    25    62 1   
    60    25    63 1   
    61    26    27 1   
    62    26    28 1   
    63    29    64 1   
@<TRIPOS>SUBSTRUCTURE
     1 16E         1 TEMP              0 ****  ****    0 ROOT
