@<TRIPOS>MOLECULE
molecule
   43    44     1     0     0
SMALL
bcc


@<TRIPOS>ATOM
      1 C1           0.0000     0.0000     0.0000 c3         1 16F       0.306500
      2 N1          -0.4890     0.0580    -1.3800 ns         1 16F      -0.474900
      3 S1          -2.4760    -1.4960    -0.5480 s          1 16F      -0.651400
      4 C2           1.5310     0.0000     0.0000 c3         1 16F       0.096100
      5 N2          -2.0660    -0.5430    -2.9930 ns         1 16F      -0.331900
      6 O2           2.0090    -1.1660    -0.6730 oh         1 16F      -0.590800
      7 C3           2.0340     0.0000     1.4460 c3         1 16F       0.114100
      8 N3          -1.3610     0.1920    -3.9560 n2         1 16F      -0.346300
      9 O3           3.4620     0.0740     1.4560 oh         1 16F      -0.606800
     10 C4           1.4530     1.2140     2.1770 c3         1 16F       0.100100
     11 O4           1.8570     1.1860     3.5470 oh         1 16F      -0.598800
     12 C5          -0.0750     1.1680     2.0940 c3         1 16F       0.155100
     13 O5          -0.4750     1.1380     0.7210 os         1 16F      -0.412600
     14 C6          -0.6610     2.4080     2.7690 c3         1 16F       0.153400
     15 O6          -2.0860     2.3090     2.7950 oh         1 16F      -0.592800
     16 C7          -1.6150    -0.5970    -1.7230 cs         1 16F       0.620400
     17 O7          -5.6530    -0.2180    -8.1330 oh         1 16F      -0.517100
     18 C8          -1.8550     0.3430    -5.1460 ce         1 16F       0.185800
     19 C9          -3.3030     0.1790    -5.3700 ca         1 16F      -0.225900
     20 C10         -3.8020     0.0560    -6.6690 ca         1 16F      -0.114000
     21 C11         -5.1630    -0.0990    -6.8700 ca         1 16F       0.105100
     22 C12         -6.0280    -0.1300    -5.7850 ca         1 16F      -0.131000
     23 C13         -5.5360    -0.0070    -4.4980 ca         1 16F      -0.104000
     24 C14         -4.1810     0.1410    -4.2840 ca         1 16F      -0.171000
     25 H1          -0.3590    -0.9040     0.4780 h2         1 16F       0.121700
     26 HN1          0.0060     0.5960    -2.0640 hn         1 16F       0.339500
     27 H2           1.8910     0.8880    -0.5060 h1         1 16F       0.053700
     28 HN2         -2.8660    -1.0810    -3.2630 hn         1 16F       0.359500
     29 HO2          2.7150    -0.9290    -1.2510 ho         1 16F       0.415000
     30 H3           1.7100    -0.9080     1.9410 h1         1 16F       0.068700
     31 HO3          3.8120    -0.6670     1.9220 ho         1 16F       0.418000
     32 H4           1.8110     2.1220     1.7080 h1         1 16F       0.054700
     33 HO4          2.5450     1.8150     3.6850 ho         1 16F       0.414000
     34 H5          -0.4350     0.2760     2.5920 h1         1 16F       0.075700
     35 H6          -0.3710     3.2930     2.2140 h1         1 16F       0.035700
     36 H6A         -0.2860     2.4790     3.7830 h1         1 16F       0.035700
     37 HO6         -2.4390     2.9830     3.3510 ho         1 16F       0.402000
     38 HO7         -5.9480     0.6240    -8.4370 ho         1 16F       0.426000
     39 H8          -2.1610    -0.6600    -5.4190 h4         1 16F       0.187800
     40 H10         -3.1380     0.1660    -7.5170 ha         1 16F       0.164000
     41 H12         -7.0930    -0.2460    -5.9460 ha         1 16F       0.149000
     42 H13         -6.2160    -0.0350    -3.6550 ha         1 16F       0.149000
     43 H14         -3.7990     0.2360    -3.2750 ha         1 16F       0.163000
@<TRIPOS>BOND
     1     4     1 1   
     2     1    13 1   
     3     1     2 1   
     4     1    25 1   
     5     2    16 1   
     6     2    26 1   
     7    16     3 2   
     8     7     4 1   
     9     6     4 1   
    10     4    27 1   
    11    16     5 1   
    12     8     5 1   
    13     5    28 1   
    14     6    29 1   
    15     9     7 1   
    16     7    10 1   
    17     7    30 1   
    18     8    18 2   
    19     9    31 1   
    20    11    10 1   
    21    10    12 1   
    22    10    32 1   
    23    11    33 1   
    24    12    14 1   
    25    12    13 1   
    26    12    34 1   
    27    15    14 1   
    28    14    35 1   
    29    14    36 1   
    30    15    37 1   
    31    21    17 1   
    32    17    38 1   
    33    18    19 1   
    34    18    39 1   
    35    19    20 ar  
    36    19    24 ar  
    37    20    21 ar  
    38    20    40 1   
    39    21    22 ar  
    40    23    22 ar  
    41    22    41 1   
    42    24    23 ar  
    43    23    42 1   
    44    24    43 1   
@<TRIPOS>SUBSTRUCTURE
     1 16F         1 TEMP              0 ****  ****    0 ROOT
