@<TRIPOS>MOLECULE
16F
   43    44     1     0     0
SMALL
bcc


@<TRIPOS>ATOM
      1 C1           0.0000     0.0000     0.0000 c3         1 16F       0.173500
      2 N1          -0.4890     0.0580    -1.3800 ns         1 16F      -0.010900
      3 S1          -2.4760    -1.4960    -0.5480 s          1 16F      -0.702400
      4 C2           1.5310     0.0000     0.0000 c3         1 16F       0.132100
      5 N2          -2.0660    -0.5430    -2.9930 ns         1 16F       0.087100
      6 O2           2.0090    -1.1660    -0.6730 oh         1 16F      -0.572800
      7 C3           2.0340     0.0000     1.4460 c3         1 16F       0.151100
      8 N3          -1.3610     0.1920    -3.9560 n2         1 16F      -0.575300
      9 O3           3.4620     0.0740     1.4560 oh         1 16F      -0.589800
     10 C4           1.4530     1.2140     2.1770 c3         1 16F       0.139100
     11 O4           1.8570     1.1860     3.5470 oh         1 16F      -0.577800
     12 C5          -0.0750     1.1680     2.0940 c3         1 16F       0.173100
     13 O5          -0.4750     1.1380     0.7210 os         1 16F      -0.389600
     14 C6          -0.6610     2.4080     2.7690 c3         1 16F       0.224400
     15 O6          -2.0860     2.3090     2.7950 oh         1 16F      -0.573800
     16 C7          -1.6150    -0.5970    -1.7230 cs         1 16F       0.315400
     17 O7          -5.6530    -0.2180    -8.1330 oh         1 16F      -0.497100
     18 C8          -1.8550     0.3430    -5.1460 ce         1 16F       0.483800
     19 C9          -3.3030     0.1790    -5.3700 ca         1 16F      -0.184900
     20 C10         -3.8020     0.0560    -6.6690 ca         1 16F      -0.101000
     21 C11         -5.1630    -0.0990    -6.8700 ca         1 16F       0.129100
     22 C12         -6.0280    -0.1300    -5.7850 ca         1 16F      -0.123000
     23 C13         -5.5360    -0.0070    -4.4980 ca         1 16F      -0.059000
     24 C14         -4.1810     0.1410    -4.2840 ca         1 16F      -0.149000
     25 H1          -0.3590    -0.9040     0.4780 h2         1 16F       0.101700
     26 HN1         -0.0090     0.6170    -2.0580 hn         1 16F       0.178500
     27 H2           1.8910     0.8880    -0.5060 h1         1 16F       0.017700
     28 HN2         -2.8660    -1.0800    -3.2620 hn         1 16F       0.231500
     29 HO2          2.7150    -0.9290    -1.2510 ho         1 16F       0.398000
     30 H3           1.7100    -0.9080     1.9410 h1         1 16F       0.034700
     31 HO3          3.8140    -0.6950     1.8730 ho         1 16F       0.404000
     32 H4           1.8110     2.1220     1.7080 h1         1 16F       0.018700
     33 HO4          2.5470     1.8140     3.6840 ho         1 16F       0.398000
     34 H5          -0.4350     0.2760     2.5920 h1         1 16F       0.042700
     35 H6          -0.2860     2.4790     3.7830 h1         1 16F      -0.003800
     36 H6A         -0.3710     3.2930     2.2140 h1         1 16F      -0.003800
     37 HO6         -2.4370     2.9650     3.3740 ho         1 16F       0.386000
     38 HO7         -5.9670     0.6200    -8.4290 ho         1 16F       0.406000
     39 H8          -1.2890     0.9070    -5.8780 h4         1 16F      -0.002200
     40 H10         -3.1380     0.1640    -7.5170 ha         1 16F       0.119000
     41 H12         -7.0930    -0.2460    -5.9460 ha         1 16F       0.118000
     42 H13         -6.2160    -0.0350    -3.6550 ha         1 16F       0.116000
     43 H14         -3.7990     0.2360    -3.2750 ha         1 16F       0.141000
@<TRIPOS>BOND
     1     1     2 1   
     2     1     4 1   
     3     1    13 1   
     4     1    25 1   
     5     2    16 1   
     6     2    26 1   
     7     3    16 2   
     8     4     6 1   
     9     4     7 1   
    10     4    27 1   
    11     5     8 1   
    12     5    16 1   
    13     5    28 1   
    14     6    29 1   
    15     7     9 1   
    16     7    10 1   
    17     7    30 1   
    18     8    18 2   
    19     9    31 1   
    20    10    11 1   
    21    10    12 1   
    22    10    32 1   
    23    11    33 1   
    24    12    13 1   
    25    12    14 1   
    26    12    34 1   
    27    14    15 1   
    28    14    35 1   
    29    14    36 1   
    30    15    37 1   
    31    17    21 1   
    32    17    38 1   
    33    18    19 1   
    34    18    39 1   
    35    19    20 ar  
    36    19    24 ar  
    37    20    21 ar  
    38    20    40 1   
    39    21    22 ar  
    40    22    23 ar  
    41    22    41 1   
    42    23    24 ar  
    43    23    42 1   
    44    24    43 1   
@<TRIPOS>SUBSTRUCTURE
     1 16F         1 TEMP              0 ****  ****    0 ROOT
