@<TRIPOS>MOLECULE
16H
   75    75     1     0     0
SMALL
bcc


@<TRIPOS>ATOM
      1 O21          0.0000     0.0000     0.0000 o          1 16H      -0.652100
      2 C21          1.2130     0.0000     0.0000 c          1 16H       0.571100
      3 N2           1.8870     0.0000     1.1680 ns         1 16H      -0.189900
      4 C2           1.1540    -0.0010     2.4360 c3         1 16H       0.012700
      5 C1           0.7890    -1.4370     2.8140 c3         1 16H       0.201400
      6 O1           1.9840    -2.1800     3.0680 oh         1 16H      -0.604800
      7 C3           2.0310     0.6090     3.5320 c3         1 16H      -0.040400
      8 C4           2.2920     2.0830     3.2150 c3         1 16H       0.246400
      9 C5           3.2540     2.6510     4.2260 ca         1 16H      -0.142300
     10 C6           4.5930     2.7880     3.9060 ca         1 16H      -0.082000
     11 C7           5.4760     3.3090     4.8330 ca         1 16H      -0.104000
     12 C8           5.0200     3.6930     6.0810 ca         1 16H      -0.096000
     13 C9           3.6820     3.5570     6.4010 ca         1 16H      -0.104000
     14 C10          2.7990     3.0400     5.4710 ca         1 16H      -0.082000
     15 O4           1.0610     2.8070     3.2700 oh         1 16H      -0.584800
     16 C22          1.9660    -0.0060    -1.3050 c3         1 16H      -0.098400
     17 C23          0.9720    -0.0110    -2.4680 c3         1 16H      -0.015400
     18 C24          1.7370    -0.0180    -3.7930 c3         1 16H      -0.032400
     19 C25          0.7430    -0.0220    -4.9560 c3         1 16H      -0.027400
     20 C26          1.5080    -0.0290    -6.2800 c3         1 16H      -0.029400
     21 C27          0.5140    -0.0340    -7.4430 c3         1 16H      -0.029400
     22 C28          1.2790    -0.0400    -8.7690 c3         1 16H      -0.029400
     23 C29          0.2850    -0.0460    -9.9320 c3         1 16H      -0.029400
     24 C30          1.0500    -0.0520   -11.2560 c3         1 16H      -0.029400
     25 C31          0.0560    -0.0570   -12.4190 c3         1 16H      -0.029400
     26 C32          0.8210    -0.0630   -13.7450 c3         1 16H      -0.029400
     27 C33         -0.1730    -0.0690   -14.9080 c3         1 16H      -0.029400
     28 C34          0.5930    -0.0750   -16.2330 c3         1 16H      -0.029400
     29 C35         -0.4020    -0.0800   -17.3950 c3         1 16H      -0.028400
     30 C36          0.3630    -0.0870   -18.7200 c3         1 16H       0.005900
     31 HN2          2.8860    -0.0520     1.1680 hn         1 16H       0.177500
     32 H2           0.2490     0.5850     2.3300 h1         1 16H       0.076700
     33 H1           0.1720    -1.4310     3.7050 h1         1 16H       0.001700
     34 H1A          0.2430    -1.8980     2.0000 h1         1 16H       0.001700
     35 HO1          1.7580    -3.0420     3.3750 ho         1 16H       0.394000
     36 H3           1.5240     0.5290     4.4860 hc         1 16H       0.040200
     37 H3A          2.9730     0.0770     3.5780 hc         1 16H       0.040200
     38 H4           2.7180     2.1700     2.2220 h1         1 16H       0.003700
     39 H6           4.9490     2.4870     2.9280 ha         1 16H       0.109500
     40 H7           6.5240     3.4160     4.5820 ha         1 16H       0.103500
     41 H8           5.7120     4.1000     6.8080 ha         1 16H       0.102000
     42 H9           3.3260     3.8600     7.3780 ha         1 16H       0.103500
     43 H10          1.7500     2.9330     5.7220 ha         1 16H       0.109500
     44 HO4          1.1580     3.6260     2.8140 ho         1 16H       0.395000
     45 H22          2.5890     0.8790    -1.3660 hc         1 16H       0.026200
     46 H22A         2.5890    -0.8900    -1.3580 hc         1 16H       0.026200
     47 H23          0.3490    -0.8950    -2.4060 hc         1 16H       0.030200
     48 H23A         0.3490     0.8740    -2.4140 hc         1 16H       0.030200
     49 H24          2.3590    -0.9030    -3.8460 hc         1 16H       0.011200
     50 H24A         2.3600     0.8660    -3.8540 hc         1 16H       0.011200
     51 H25          0.1210     0.8630    -4.9030 hc         1 16H       0.016700
     52 H25A         0.1200    -0.9060    -4.8950 hc         1 16H       0.016700
     53 H26          2.1310     0.8550    -6.3420 hc         1 16H       0.013700
     54 H26A         2.1310    -0.9140    -6.3330 hc         1 16H       0.013700
     55 H27         -0.1090     0.8500    -7.3900 hc         1 16H       0.015700
     56 H27A        -0.1090    -0.9190    -7.3820 hc         1 16H       0.015700
     57 H28          1.9020     0.8440    -8.8300 hc         1 16H       0.013700
     58 H28A         1.9020    -0.9250    -8.8220 hc         1 16H       0.013700
     59 H29         -0.3380     0.8390    -9.8790 hc         1 16H       0.014700
     60 H29A        -0.3380    -0.9300    -9.8700 hc         1 16H       0.014700
     61 H30          1.6720    -0.9370   -11.3090 hc         1 16H       0.014700
     62 H30A         1.6740     0.8320   -11.3170 hc         1 16H       0.014700
     63 H31         -0.5660     0.8280   -12.3660 hc         1 16H       0.014700
     64 H31A        -0.5670    -0.9410   -12.3580 hc         1 16H       0.014700
     65 H32          1.4440     0.8210   -13.8060 hc         1 16H       0.014700
     66 H32A         1.4440    -0.9480   -13.7980 hc         1 16H       0.014700
     67 H33         -0.7960    -0.9530   -14.8460 hc         1 16H       0.014700
     68 H33A        -0.7960     0.8160   -14.8540 hc         1 16H       0.014700
     69 H34          1.2160    -0.9590   -16.2870 hc         1 16H       0.014700
     70 H34A         1.2150     0.8100   -16.2940 hc         1 16H       0.014700
     71 H35         -1.0240     0.8050   -17.3420 hc         1 16H       0.011700
     72 H35A        -1.0250    -0.9640   -17.3330 hc         1 16H       0.011700
     73 H36          0.9860    -0.9720   -18.7740 hc         1 16H       0.000033
     74 H36A        -0.3410    -0.0900   -19.5440 hc         1 16H       0.000033
     75 H36B         0.9870     0.7970   -18.7820 hc         1 16H       0.000033
@<TRIPOS>BOND
     1     1     2 2   
     2     2     3 1   
     3     2    16 1   
     4     3     4 1   
     5     3    31 1   
     6     4     5 1   
     7     4     7 1   
     8     4    32 1   
     9     5     6 1   
    10     5    33 1   
    11     5    34 1   
    12     6    35 1   
    13     7     8 1   
    14     7    36 1   
    15     7    37 1   
    16     8     9 1   
    17     8    15 1   
    18     8    38 1   
    19     9    10 ar  
    20     9    14 ar  
    21    10    11 ar  
    22    10    39 1   
    23    11    12 ar  
    24    11    40 1   
    25    12    13 ar  
    26    12    41 1   
    27    13    14 ar  
    28    13    42 1   
    29    14    43 1   
    30    15    44 1   
    31    16    17 1   
    32    16    45 1   
    33    16    46 1   
    34    17    18 1   
    35    17    47 1   
    36    17    48 1   
    37    18    19 1   
    38    18    49 1   
    39    18    50 1   
    40    19    20 1   
    41    19    51 1   
    42    19    52 1   
    43    20    21 1   
    44    20    53 1   
    45    20    54 1   
    46    21    22 1   
    47    21    55 1   
    48    21    56 1   
    49    22    23 1   
    50    22    57 1   
    51    22    58 1   
    52    23    24 1   
    53    23    59 1   
    54    23    60 1   
    55    24    25 1   
    56    24    61 1   
    57    24    62 1   
    58    25    26 1   
    59    25    63 1   
    60    25    64 1   
    61    26    27 1   
    62    26    65 1   
    63    26    66 1   
    64    27    28 1   
    65    27    67 1   
    66    27    68 1   
    67    28    29 1   
    68    28    69 1   
    69    28    70 1   
    70    29    30 1   
    71    29    71 1   
    72    29    72 1   
    73    30    73 1   
    74    30    74 1   
    75    30    75 1   
@<TRIPOS>SUBSTRUCTURE
     1 16H         1 TEMP              0 ****  ****    0 ROOT
