@<TRIPOS>MOLECULE
molecule
   75    75     1     0     0
SMALL
bcc


@<TRIPOS>ATOM
      1 O21          0.0000     0.0000     0.0000 o          1 16H      -0.614100
      2 C21          1.2130     0.0000     0.0000 c          1 16H       0.656100
      3 N2           1.8870     0.0000     1.1680 ns         1 16H      -0.580900
      4 C2           1.1540    -0.0010     2.4360 c3         1 16H       0.120700
      5 C1           0.7890    -1.4370     2.8140 c3         1 16H       0.119400
      6 O1           1.9840    -2.1800     3.0680 oh         1 16H      -0.620800
      7 C3           2.0310     0.6090     3.5320 c3         1 16H      -0.079400
      8 C4           2.2920     2.0830     3.2150 c3         1 16H       0.192400
      9 C5           3.2540     2.6510     4.2260 ca         1 16H      -0.129300
     10 C6           4.5930     2.7880     3.9060 ca         1 16H      -0.112500
     11 C7           5.4760     3.3090     4.8330 ca         1 16H      -0.130500
     12 C8           5.0200     3.6930     6.0810 ca         1 16H      -0.124000
     13 C9           3.6820     3.5570     6.4010 ca         1 16H      -0.130500
     14 C10          2.7990     3.0400     5.4710 ca         1 16H      -0.112500
     15 O4           1.0610     2.8070     3.2700 oh         1 16H      -0.603800
     16 C22          1.9660    -0.0060    -1.3050 c3         1 16H      -0.158400
     17 C23          0.9720    -0.0110    -2.4680 c3         1 16H      -0.066400
     18 C24          1.7370    -0.0180    -3.7930 c3         1 16H      -0.085400
     19 C25          0.7430    -0.0220    -4.9560 c3         1 16H      -0.080400
     20 C26          1.5080    -0.0290    -6.2800 c3         1 16H      -0.082400
     21 C27          0.5140    -0.0340    -7.4430 c3         1 16H      -0.081400
     22 C28          1.2790    -0.0400    -8.7690 c3         1 16H      -0.082400
     23 C29          0.2850    -0.0460    -9.9320 c3         1 16H      -0.081400
     24 C30          1.0500    -0.0520   -11.2560 c3         1 16H      -0.081400
     25 C31          0.0560    -0.0570   -12.4190 c3         1 16H      -0.082400
     26 C32          0.8210    -0.0630   -13.7450 c3         1 16H      -0.082400
     27 C33         -0.1730    -0.0690   -14.9080 c3         1 16H      -0.082400
     28 C34          0.5930    -0.0750   -16.2330 c3         1 16H      -0.081400
     29 C35         -0.4020    -0.0800   -17.3950 c3         1 16H      -0.084400
     30 C36          0.3630    -0.0870   -18.7200 c3         1 16H      -0.092100
     31 HN2          2.8860    -0.0520     1.1680 hn         1 16H       0.316500
     32 H2           0.2490     0.5850     2.3300 h1         1 16H       0.102700
     33 H1           0.1720    -1.4310     3.7050 h1         1 16H       0.035700
     34 H1A          0.2430    -1.8980     2.0000 h1         1 16H       0.035700
     35 HO1          1.7580    -3.0420     3.3750 ho         1 16H       0.403000
     36 H3           1.5240     0.5290     4.4860 hc         1 16H       0.069700
     37 H3A          2.9730     0.0770     3.5780 hc         1 16H       0.069700
     38 H4           2.7180     2.1700     2.2220 h1         1 16H       0.038700
     39 H6           4.9490     2.4870     2.9280 ha         1 16H       0.135000
     40 H7           6.5240     3.4160     4.5820 ha         1 16H       0.130500
     41 H8           5.7120     4.1000     6.8080 ha         1 16H       0.129000
     42 H9           3.3260     3.8600     7.3780 ha         1 16H       0.130500
     43 H10          1.7500     2.9330     5.7220 ha         1 16H       0.135000
     44 HO4          1.1580     3.6260     2.8140 ho         1 16H       0.408000
     45 H22          2.5890     0.8790    -1.3660 hc         1 16H       0.058200
     46 H22A         2.5890    -0.8900    -1.3580 hc         1 16H       0.058200
     47 H23          0.3490    -0.8950    -2.4060 hc         1 16H       0.058700
     48 H23A         0.3490     0.8740    -2.4140 hc         1 16H       0.058700
     49 H24          2.3590    -0.9030    -3.8460 hc         1 16H       0.038200
     50 H24A         2.3600     0.8660    -3.8540 hc         1 16H       0.038200
     51 H25          0.1210     0.8630    -4.9030 hc         1 16H       0.043700
     52 H25A         0.1200    -0.9060    -4.8950 hc         1 16H       0.043700
     53 H26          2.1310     0.8550    -6.3420 hc         1 16H       0.040200
     54 H26A         2.1310    -0.9140    -6.3330 hc         1 16H       0.040200
     55 H27         -0.1090     0.8500    -7.3900 hc         1 16H       0.041700
     56 H27A        -0.1090    -0.9190    -7.3820 hc         1 16H       0.041700
     57 H28          1.9020     0.8440    -8.8300 hc         1 16H       0.040700
     58 H28A         1.9020    -0.9250    -8.8220 hc         1 16H       0.040700
     59 H29         -0.3380     0.8390    -9.8790 hc         1 16H       0.041700
     60 H29A        -0.3380    -0.9300    -9.8700 hc         1 16H       0.041700
     61 H30          1.6720    -0.9370   -11.3090 hc         1 16H       0.040700
     62 H30A         1.6740     0.8320   -11.3170 hc         1 16H       0.040700
     63 H31         -0.5660     0.8280   -12.3660 hc         1 16H       0.040700
     64 H31A        -0.5670    -0.9410   -12.3580 hc         1 16H       0.040700
     65 H32          1.4440     0.8210   -13.8060 hc         1 16H       0.040700
     66 H32A         1.4440    -0.9480   -13.7980 hc         1 16H       0.040700
     67 H33         -0.7960    -0.9530   -14.8460 hc         1 16H       0.040700
     68 H33A        -0.7960     0.8160   -14.8540 hc         1 16H       0.040700
     69 H34          1.2160    -0.9590   -16.2870 hc         1 16H       0.040700
     70 H34A         1.2150     0.8100   -16.2940 hc         1 16H       0.040700
     71 H35         -1.0240     0.8050   -17.3420 hc         1 16H       0.039700
     72 H35A        -1.0250    -0.9640   -17.3330 hc         1 16H       0.039700
     73 H36          0.9860    -0.9720   -18.7740 hc         1 16H       0.032367
     74 H36A        -0.3410    -0.0900   -19.5440 hc         1 16H       0.032367
     75 H36B         0.9870     0.7970   -18.7820 hc         1 16H       0.032367
@<TRIPOS>BOND
     1     1     2 2   
     2     2     3 1   
     3     2    16 1   
     4     3     4 1   
     5     4     5 1   
     6     4     7 1   
     7     5     6 1   
     8     7     8 1   
     9     8     9 1   
    10     8    15 1   
    11     9    10 ar  
    12     9    14 ar  
    13    10    11 ar  
    14    11    12 ar  
    15    12    13 ar  
    16    13    14 ar  
    17    16    17 1   
    18    17    18 1   
    19    18    19 1   
    20    19    20 1   
    21    20    21 1   
    22    21    22 1   
    23    22    23 1   
    24    23    24 1   
    25    24    25 1   
    26    25    26 1   
    27    26    27 1   
    28    27    28 1   
    29    28    29 1   
    30    29    30 1   
    31     3    31 1   
    32     4    32 1   
    33     5    33 1   
    34     5    34 1   
    35     6    35 1   
    36     7    36 1   
    37     7    37 1   
    38     8    38 1   
    39    10    39 1   
    40    11    40 1   
    41    12    41 1   
    42    13    42 1   
    43    14    43 1   
    44    15    44 1   
    45    16    45 1   
    46    16    46 1   
    47    17    47 1   
    48    17    48 1   
    49    18    49 1   
    50    18    50 1   
    51    19    51 1   
    52    19    52 1   
    53    20    53 1   
    54    20    54 1   
    55    21    55 1   
    56    21    56 1   
    57    22    57 1   
    58    22    58 1   
    59    23    59 1   
    60    23    60 1   
    61    24    61 1   
    62    24    62 1   
    63    25    63 1   
    64    25    64 1   
    65    26    65 1   
    66    26    66 1   
    67    27    67 1   
    68    27    68 1   
    69    28    69 1   
    70    28    70 1   
    71    29    71 1   
    72    29    72 1   
    73    30    73 1   
    74    30    74 1   
    75    30    75 1   
@<TRIPOS>SUBSTRUCTURE
     1 16H         1 TEMP              0 ****  ****    0 ROOT
