@<TRIPOS>MOLECULE
16H
   76    76     1     0     0
SMALL
bcc


@<TRIPOS>ATOM
      1 O21          0.8850    -1.2520    -0.2240 o          1 16H      -0.418100
      2 C21          1.3680    -0.1880    -0.5800 c          1 16H       0.549100
      3 N2           1.6990     0.8180     0.4960 ny         1 16H      -0.681800
      4 C2           1.4360     0.3450     1.9010 c3         1 16H       0.098500
      5 C1           2.5660    -0.6080     2.3650 c3         1 16H       0.108400
      6 O1           3.8210    -0.0050     2.1380 oh         1 16H      -0.610800
      7 C3           1.3070     1.5150     2.8710 c3         1 16H      -0.152400
      8 C4           0.0860     2.4040     2.6000 c3         1 16H       0.186400
      9 C5           0.3500     3.4180     1.5250 ca         1 16H      -0.187300
     10 C6           1.3840     4.3530     1.6600 ca         1 16H      -0.138000
     11 C7           1.5950     5.3140     0.6740 ca         1 16H      -0.122500
     12 C8           0.7710     5.3550    -0.4520 ca         1 16H      -0.104000
     13 C9          -0.2700     4.4350    -0.5850 ca         1 16H      -0.122500
     14 C10         -0.4820     3.4700     0.4000 ca         1 16H      -0.138000
     15 O4          -0.3210     2.9980     3.8180 oh         1 16H      -0.563800
     16 C22          1.6450     0.2430    -1.9910 c3         1 16H      -0.164400
     17 C23          2.9120     1.0510    -2.1710 c3         1 16H      -0.096400
     18 C24          3.2030     1.2280    -3.6500 c3         1 16H      -0.077400
     19 C25          4.4440     2.0590    -3.8970 c3         1 16H      -0.082400
     20 C26          4.2900     3.5290    -3.5720 c3         1 16H      -0.080400
     21 C27          3.2680     4.2250    -4.4450 c3         1 16H      -0.080400
     22 C28          3.3200     5.7280    -4.2630 c3         1 16H      -0.082400
     23 C29          2.1710     6.4040    -4.9810 c3         1 16H      -0.076400
     24 C30          2.2580     7.9150    -4.9320 c3         1 16H      -0.081400
     25 C31          2.1390     8.4820    -3.5300 c3         1 16H      -0.075400
     26 C32          3.4730     8.9690    -2.9980 c3         1 16H      -0.082400
     27 C33          3.3870     9.4020    -1.5480 c3         1 16H      -0.080400
     28 C34          3.5220     8.2470    -0.5780 c3         1 16H      -0.078400
     29 C35          4.9680     7.8730    -0.3300 c3         1 16H      -0.086400
     30 C36          5.0880     6.6960     0.6030 c3         1 16H      -0.093100
     31 HN2          2.7040     1.0420     0.4230 hn         1 16H       0.474300
     32 H2           0.4670    -0.2410     1.8840 hx         1 16H       0.125700
     33 H1           2.3950    -0.8700     3.4400 h1         1 16H       0.092200
     34 H1A          2.5540    -1.5470     1.7430 h1         1 16H       0.092200
     35 HO1          4.1410     0.3600     2.9730 ho         1 16H       0.434000
     36 H3           1.1830     1.0790     3.9020 hc         1 16H       0.088700
     37 H3A          2.2480     2.1250     2.8770 hc         1 16H       0.088700
     38 H4          -0.7940     1.7520     2.3200 h1         1 16H       0.083700
     39 H6           2.0220     4.3450     2.5580 ha         1 16H       0.141000
     40 H7           2.4080     6.0530     0.7870 ha         1 16H       0.159000
     41 H8           0.9350     6.1230    -1.2270 ha         1 16H       0.161000
     42 H9          -0.9400     4.4840    -1.4580 ha         1 16H       0.159000
     43 H10         -1.3370     2.7810     0.3140 ha         1 16H       0.141000
     44 HO4          0.2190     3.7850     3.9700 ho         1 16H       0.417000
     45 H22          1.6990    -0.6970    -2.6120 hc         1 16H       0.119200
     46 H22A         0.7530     0.8300    -2.3510 hc         1 16H       0.119200
     47 H23          3.7790     0.5300    -1.6850 hc         1 16H       0.052700
     48 H23A         2.8050     2.0640    -1.7000 hc         1 16H       0.052700
     49 H24          3.3470     0.2170    -4.1180 hc         1 16H       0.055700
     50 H24A         2.3210     1.7060    -4.1520 hc         1 16H       0.055700
     51 H25          5.2950     1.6410    -3.2940 hc         1 16H       0.055200
     52 H25A         4.7240     1.9550    -4.9800 hc         1 16H       0.055200
     53 H26          5.2880     4.0270    -3.7120 hc         1 16H       0.040200
     54 H26A         4.0110     3.6590    -2.4940 hc         1 16H       0.040200
     55 H27          3.4550     3.9720    -5.5220 hc         1 16H       0.038700
     56 H27A         2.2380     3.8550    -4.1940 hc         1 16H       0.038700
     57 H28          3.2790     5.9810    -3.1700 hc         1 16H       0.043700
     58 H28A         4.2950     6.1200    -4.6550 hc         1 16H       0.043700
     59 H29          1.2000     6.0690    -4.5300 hc         1 16H       0.037700
     60 H29A         2.1660     6.0780    -6.0560 hc         1 16H       0.037700
     61 H30          1.4310     8.3320    -5.5670 hc         1 16H       0.048200
     62 H30A         3.2240     8.2450    -5.3990 hc         1 16H       0.048200
     63 H31          1.4170     9.3410    -3.5360 hc         1 16H       0.034700
     64 H31A         1.7160     7.7090    -2.8350 hc         1 16H       0.034700
     65 H32          4.2400     8.1570    -3.1080 hc         1 16H       0.044700
     66 H32A         3.8170     9.8360    -3.6210 hc         1 16H       0.044700
     67 H33          4.1940    10.1540    -1.3400 hc         1 16H       0.047700
     68 H33A         2.4060     9.9180    -1.3730 hc         1 16H       0.047700
     69 H34          2.9660     7.3550    -0.9750 hc         1 16H       0.029700
     70 H34A         3.0450     8.5270     0.3990 hc         1 16H       0.029700
     71 H35          5.5100     8.7540     0.1070 hc         1 16H       0.049700
     72 H35A         5.4670     7.6330    -1.3060 hc         1 16H       0.049700
     73 H36          4.6170     5.7870     0.1550 hc         1 16H       0.027700
     74 H36A         6.1620     6.4700     0.8060 hc         1 16H       0.027700
     75 H36B         4.5820     6.9110     1.5760 hc         1 16H       0.027700
     76 H231         1.1590     1.6800     0.3190 hn         1 16H       0.474300
@<TRIPOS>BOND
     1     1     2 2   
     2     2     3 1   
     3     2    16 1   
     4     3     4 1   
     5     3    31 1   
     6     3    76 1   
     7     4     5 1   
     8     4     7 1   
     9     4    32 1   
    10     5     6 1   
    11     5    33 1   
    12     5    34 1   
    13     6    35 1   
    14     7     8 1   
    15     7    36 1   
    16     7    37 1   
    17     8     9 1   
    18     8    15 1   
    19     8    38 1   
    20     9    10 ar  
    21     9    14 ar  
    22    10    11 ar  
    23    10    39 1   
    24    11    12 ar  
    25    11    40 1   
    26    12    13 ar  
    27    12    41 1   
    28    13    14 ar  
    29    13    42 1   
    30    14    43 1   
    31    15    44 1   
    32    16    17 1   
    33    16    45 1   
    34    16    46 1   
    35    17    18 1   
    36    17    47 1   
    37    17    48 1   
    38    18    19 1   
    39    18    49 1   
    40    18    50 1   
    41    19    20 1   
    42    19    51 1   
    43    19    52 1   
    44    20    21 1   
    45    20    53 1   
    46    20    54 1   
    47    21    22 1   
    48    21    55 1   
    49    21    56 1   
    50    22    23 1   
    51    22    57 1   
    52    22    58 1   
    53    23    24 1   
    54    23    59 1   
    55    23    60 1   
    56    24    25 1   
    57    24    61 1   
    58    24    62 1   
    59    25    26 1   
    60    25    63 1   
    61    25    64 1   
    62    26    27 1   
    63    26    65 1   
    64    26    66 1   
    65    27    28 1   
    66    27    67 1   
    67    27    68 1   
    68    28    29 1   
    69    28    69 1   
    70    28    70 1   
    71    29    30 1   
    72    29    71 1   
    73    29    72 1   
    74    30    73 1   
    75    30    74 1   
    76    30    75 1   
@<TRIPOS>SUBSTRUCTURE
     1 16H         1 TEMP              0 ****  ****    0 ROOT
