@<TRIPOS>MOLECULE
molecule
   38    41     1     0     0
SMALL
bcc


@<TRIPOS>ATOM
      1 O            0.0000     0.0000     0.0000 o          1 16I      -0.582100
      2 C4           1.2170     0.0000     0.0000 c          1 16I       0.709700
      3 C3           1.9490     0.0000     1.2690 cc         1 16I      -0.133700
      4 C1           1.3800    -0.0000     2.5130 cd         1 16I      -0.067000
      5 C            2.3030    -0.0010     3.5320 cd         1 16I      -0.174000
      6 N            1.8920    -0.0050    -1.1670 ns         1 16I      -0.475100
      7 C5           1.2000    -0.1210    -2.3710 ca         1 16I       0.085600
      8 C6           1.6720     0.5260    -3.5080 ca         1 16I      -0.153000
      9 C7           0.9900     0.4130    -4.7000 ca         1 16I      -0.070500
     10 C10          0.0420    -0.8900    -2.4350 ca         1 16I      -0.153000
     11 C9          -0.6440    -1.0070    -3.6240 ca         1 16I      -0.070500
     12 C8          -0.1760    -0.3530    -4.7660 ca         1 16I      -0.171900
     13 C11         -0.9090    -0.4760    -6.0410 cc         1 16I       0.562500
     14 N2          -2.0480    -1.2340    -6.0690 ns         1 16I      -0.471400
     15 C18         -2.7510    -1.3730    -7.2170 c          1 16I       0.710100
     16 O1          -3.7660    -2.0440    -7.2590 o          1 16I      -0.625500
     17 C19          3.5830    -0.0020     3.1400 cc         1 16I      -0.077100
     18 N1          -0.4420     0.1500    -7.0930 nd         1 16I      -0.655100
     19 C12         -1.0600     0.0830    -8.2890 ca         1 16I       0.202400
     20 C17         -2.2420    -0.6840    -8.4120 ca         1 16I      -0.210600
     21 C13         -0.5590     0.7520    -9.4080 ca         1 16I      -0.125000
     22 C14         -1.2200     0.6570   -10.6120 ca         1 16I      -0.092000
     23 C15         -2.3800    -0.0950   -10.7300 ca         1 16I      -0.157000
     24 C16         -2.8950    -0.7650    -9.6400 ca         1 16I      -0.050000
     25 S            3.7000    -0.0070     1.4380 ss         1 16I      -0.100800
     26 H            2.8910     0.0460    -1.1670 hn         1 16I       0.328500
     27 H1           0.3100     0.0000     2.6780 ha         1 16I       0.174000
     28 HA           2.0160    -0.0000     4.5770 ha         1 16I       0.157000
     29 H19          4.4310    -0.0030     3.8140 h4         1 16I       0.176000
     30 H6           2.5760     1.1200    -3.4570 ha         1 16I       0.152500
     31 H10         -0.3200    -1.3970    -1.5490 ha         1 16I       0.152500
     32 H7           1.3570     0.9200    -5.5850 ha         1 16I       0.147500
     33 H9          -1.5470    -1.6040    -3.6730 ha         1 16I       0.147500
     34 H2          -2.3630    -1.6890    -5.2350 hn         1 16I       0.340500
     35 H13          0.3460     1.3430    -9.3290 ha         1 16I       0.148000
     36 H16         -3.8010    -1.3510    -9.7380 ha         1 16I       0.154000
     37 H14         -0.8300     1.1770   -11.4790 ha         1 16I       0.133000
     38 H15         -2.8860    -0.1570   -11.6860 ha         1 16I       0.135000
@<TRIPOS>BOND
     1     1     2 2
     2     2     3 1
     3     2     6 1
     4     3     4 2
     5     3    25 1
     6     4     5 1
     7     5    17 2
     8     6     7 1
     9     7     8 ar
    10     7    10 ar
    11     8     9 ar
    12     9    12 ar
    13    10    11 ar
    14    11    12 ar
    15    12    13 1
    16    13    14 1
    17    13    18 2
    18    14    15 1
    19    15    16 2
    20    15    20 1
    21    18    19 1
    22    17    25 1
    23    19    20 ar
    24    19    21 ar
    25    20    24 ar
    26    21    22 ar
    27    22    23 ar
    28    23    24 ar
    29     6    26 1
    30     4    27 1
    31     5    28 1
    32    17    29 1
    33     8    30 1
    34    10    31 1
    35     9    32 1
    36    11    33 1
    37    14    34 1
    38    21    35 1
    39    24    36 1
    40    22    37 1
    41    23    38 1
@<TRIPOS>SUBSTRUCTURE
     1 16I         1 TEMP              0 ****  ****    0 ROOT
