@<TRIPOS>MOLECULE
16I
   38    41     1     0     0
SMALL
bcc


@<TRIPOS>ATOM
      1 O            0.3430    -1.4550     0.1870 o          1 16I      -0.583100
      2 C4           1.2620    -0.6160     0.1820 c          1 16I       0.718700
      3 C3           1.9460    -0.2050     1.4210 cc         1 16I      -0.222700
      4 C1           3.2820     0.1650     1.5340 cd         1 16I      -0.124000
      5 C            3.6240     0.4740     2.8800 cd         1 16I      -0.163000
      6 N            1.7070     0.0080    -0.9810 ns         1 16I      -0.465100
      7 C5           1.2550    -0.2070    -2.2880 ca         1 16I       0.097600
      8 C6           1.7560     0.6340    -3.3170 ca         1 16I      -0.180500
      9 C7           1.3460     0.4650    -4.6310 ca         1 16I      -0.065000
     10 C10          0.3380    -1.2210    -2.6390 ca         1 16I      -0.180500
     11 C9          -0.0620    -1.3810    -3.9610 ca         1 16I      -0.065000
     12 C8           0.4290    -0.5390    -4.9630 ca         1 16I      -0.184900
     13 C11         -0.0110    -0.7220    -6.3710 cc         1 16I       0.551500
     14 N2          -0.3690     0.4440    -7.0630 ns         1 16I      -0.494400
     15 C18         -0.7990     0.3880    -8.3980 c          1 16I       0.708100
     16 O1          -1.1060     1.4470    -8.9750 o          1 16I      -0.627500
     17 C19          2.5340     0.3280     3.7210 cc         1 16I      -0.186100
     18 N1          -0.0460    -1.9380    -6.8910 nd         1 16I      -0.617100
     19 C12         -0.4680    -2.0760    -8.2190 ca         1 16I       0.183400
     20 C17         -0.8480    -0.9550    -9.0040 ca         1 16I      -0.191600
     21 C13         -0.5220    -3.3620    -8.8130 ca         1 16I      -0.124000
     22 C14         -0.9370    -3.5000   -10.1280 ca         1 16I      -0.095000
     23 C15         -1.3100    -2.3850   -10.8900 ca         1 16I      -0.155000
     24 C16         -1.2660    -1.1170   -10.3320 ca         1 16I      -0.059000
     25 S            1.1830    -0.1720     2.9110 ss         1 16I       0.168200
     26 H            2.4100     0.7070    -0.8760 hn         1 16I       0.322500
     27 H1           4.0030     0.1990     0.7140 ha         1 16I       0.155000
     28 HA           4.6230     0.7850     3.1910 ha         1 16I       0.160000
     29 H19          2.5520     0.5130     4.7950 h4         1 16I       0.179000
     30 H6           2.4810     1.4300    -3.0840 ha         1 16I       0.158000
     31 H10         -0.0720    -1.9000    -1.8720 ha         1 16I       0.158000
     32 H7           1.7650     1.1210    -5.4100 ha         1 16I       0.148000
     33 H9          -0.7720    -2.1860    -4.2150 ha         1 16I       0.148000
     34 H2          -0.3360     1.3240    -6.5990 hn         1 16I       0.338500
     35 H13         -0.2310    -4.2460    -8.2250 ha         1 16I       0.153000
     36 H16         -1.5540    -0.2250   -10.9120 ha         1 16I       0.158000
     37 H14         -0.9760    -4.5030   -10.5820 ha         1 16I       0.136000
     38 H15         -1.6360    -2.5190   -11.9320 ha         1 16I       0.139000
@<TRIPOS>BOND
     1     1     2 2   
     2     2     3 1   
     3     2     6 1   
     4     3     4 2   
     5     3    25 1   
     6     4     5 1   
     7     4    27 1   
     8     5    17 2   
     9     5    28 1   
    10     6     7 1   
    11     6    26 1   
    12     7     8 ar  
    13     7    10 ar  
    14     8     9 ar  
    15     8    30 1   
    16     9    12 ar  
    17     9    32 1   
    18    10    11 ar  
    19    10    31 1   
    20    11    12 ar  
    21    11    33 1   
    22    12    13 1   
    23    13    14 1   
    24    13    18 2   
    25    14    15 1   
    26    14    34 1   
    27    15    16 2   
    28    15    20 1   
    29    17    25 1   
    30    17    29 1   
    31    18    19 1   
    32    19    20 ar  
    33    19    21 ar  
    34    20    24 ar  
    35    21    22 ar  
    36    21    35 1   
    37    22    23 ar  
    38    22    37 1   
    39    23    24 ar  
    40    23    38 1   
    41    24    36 1   
@<TRIPOS>SUBSTRUCTURE
     1 16I         1 TEMP              0 ****  ****    0 ROOT
