@<TRIPOS>MOLECULE
16I
   38    41     1     0     0
SMALL
bcc


@<TRIPOS>ATOM
      1 O            0.0000     0.0000     0.0000 o          1 16I      -0.628100
      2 C4           1.2170     0.0000     0.0000 c          1 16I       0.625700
      3 C3           1.9490     0.0000     1.2690 cc         1 16I      -0.100700
      4 C1           1.3800    -0.0000     2.5130 cd         1 16I      -0.029000
      5 C            2.3030    -0.0010     3.5320 cd         1 16I      -0.146000
      6 N            1.8920    -0.0050    -1.1670 ns         1 16I      -0.030100
      7 C5           1.2000    -0.1210    -2.3710 ca         1 16I      -0.066400
      8 C6           1.6720     0.5260    -3.5080 ca         1 16I      -0.123500
      9 C7           0.9900     0.4130    -4.7000 ca         1 16I      -0.048000
     10 C10          0.0420    -0.8900    -2.4350 ca         1 16I      -0.123500
     11 C9          -0.6440    -1.0070    -3.6240 ca         1 16I      -0.048000
     12 C8          -0.1760    -0.3530    -4.7660 ca         1 16I      -0.176900
     13 C11         -0.9090    -0.4760    -6.0410 cc         1 16I       0.365500
     14 N2          -2.0480    -1.2340    -6.0690 ns         1 16I      -0.017400
     15 C18         -2.7510    -1.3730    -7.2170 c          1 16I       0.621100
     16 O1          -3.7660    -2.0440    -7.2590 o          1 16I      -0.666500
     17 C19          3.5830    -0.0020     3.1400 cc         1 16I       0.006900
     18 N1          -0.4420     0.1500    -7.0930 nd         1 16I      -0.544100
     19 C12         -1.0600     0.0830    -8.2890 ca         1 16I       0.158400
     20 C17         -2.2420    -0.6840    -8.4120 ca         1 16I      -0.219600
     21 C13         -0.5590     0.7520    -9.4080 ca         1 16I      -0.101000
     22 C14         -1.2200     0.6570   -10.6120 ca         1 16I      -0.063000
     23 C15         -2.3800    -0.0950   -10.7300 ca         1 16I      -0.132000
     24 C16         -2.8950    -0.7650    -9.6400 ca         1 16I      -0.014000
     25 S            3.7000    -0.0070     1.4380 ss         1 16I      -0.228800
     26 H            2.8910     0.0460    -1.1670 hn         1 16I       0.177500
     27 H1           0.3100     0.0000     2.6780 ha         1 16I       0.140000
     28 HA           2.0160    -0.0000     4.5770 ha         1 16I       0.126000
     29 H19          4.4310    -0.0030     3.8140 h4         1 16I       0.152000
     30 H6           2.5760     1.1200    -3.4570 ha         1 16I       0.127000
     31 H10         -0.3200    -1.3970    -1.5490 ha         1 16I       0.127000
     32 H7           1.3570     0.9200    -5.5850 ha         1 16I       0.117500
     33 H9          -1.5470    -1.6040    -3.6730 ha         1 16I       0.117500
     34 H2          -2.3630    -1.6890    -5.2350 hn         1 16I       0.191500
     35 H13          0.3460     1.3430    -9.3290 ha         1 16I       0.118000
     36 H16         -3.8010    -1.3510    -9.7380 ha         1 16I       0.124000
     37 H14         -0.8300     1.1770   -11.4790 ha         1 16I       0.102000
     38 H15         -2.8860    -0.1570   -11.6860 ha         1 16I       0.107000
@<TRIPOS>BOND
     1     1     2 2   
     2     2     3 1   
     3     2     6 1   
     4     3     4 2   
     5     3    25 1   
     6     4     5 1   
     7     4    27 1   
     8     5    17 2   
     9     5    28 1   
    10     6     7 1   
    11     6    26 1   
    12     7     8 ar  
    13     7    10 ar  
    14     8     9 ar  
    15     8    30 1   
    16     9    12 ar  
    17     9    32 1   
    18    10    11 ar  
    19    10    31 1   
    20    11    12 ar  
    21    11    33 1   
    22    12    13 1   
    23    13    14 1   
    24    13    18 2   
    25    14    15 1   
    26    14    34 1   
    27    15    16 2   
    28    15    20 1   
    29    17    25 1   
    30    17    29 1   
    31    18    19 1   
    32    19    20 ar  
    33    19    21 ar  
    34    20    24 ar  
    35    21    22 ar  
    36    21    35 1   
    37    22    23 ar  
    38    22    37 1   
    39    23    24 ar  
    40    23    38 1   
    41    24    36 1   
@<TRIPOS>SUBSTRUCTURE
     1 16I         1 TEMP              0 ****  ****    0 ROOT
