@<TRIPOS>MOLECULE
molecule
   41    43     1     0     0
SMALL
bcc


@<TRIPOS>ATOM
      1 CAI          0.0000     0.0000     0.0000 c3         1 16J       0.069000
      2 CAG          1.5330     0.0000     0.0000 c3         1 16J       0.119900
      3 OAO          2.0030     0.0000     1.3500 os         1 16J      -0.421600
      4 CAH          1.6280     1.1570     2.1020 c3         1 16J       0.119900
      5 CAJ          0.1000     1.2160     2.2080 c3         1 16J       0.069000
      6 NAS         -0.4650     1.1050     0.8550 n          1 16J      -0.517800
      7 CAP         -1.3800     1.9870     0.4100 c          1 16J       0.798100
      8 OAA         -1.5710     2.1160    -0.7840 o          1 16J      -0.653100
      9 NAT         -2.0850     2.7270     1.2900 n          1 16J      -0.511800
     10 CAL         -2.0210     2.4490     2.7330 c3         1 16J       0.099500
     11 CAN         -3.4520     2.3290     3.2690 c3         1 16J       0.146300
     12 CAK         -2.9330     3.8380     0.8320 c3         1 16J       0.099500
     13 CAM         -4.3300     3.6670     1.4390 c3         1 16J       0.146300
     14 NAU         -4.2110     3.5310     2.9000 nh         1 16J      -0.598000
     15 CAR         -5.4690     3.5340     3.5090 ca         1 16J       0.106600
     16 CAE         -6.3460     4.5890     3.2900 ca         1 16J      -0.160500
     17 CAC         -7.5880     4.5890     3.8930 ca         1 16J      -0.096000
     18 CAQ         -7.9600     3.5410     4.7160 ca         1 16J       0.002400
     19 ClA         -9.5230     3.5430     5.4720 cl         1 16J      -0.112400
     20 CAD         -7.0880     2.4890     4.9370 ca         1 16J      -0.096000
     21 CAF         -5.8470     2.4800     4.3320 ca         1 16J      -0.160500
     22 H1          -0.3630     0.1440    -1.0100 h1         1 16J       0.065950
     23 H2          -0.3640    -0.9420     0.3930 h1         1 16J       0.065950
     24 H3           1.8940     0.8860    -0.5080 h1         1 16J       0.056450
     25 H4           1.8940    -0.8860    -0.5080 h1         1 16J       0.056450
     26 H5           2.0570     1.0960     3.0950 h1         1 16J       0.056450
     27 H6           1.9900     2.0460     1.5990 h1         1 16J       0.056450
     28 H7          -0.2540     0.3940     2.8190 h1         1 16J       0.065950
     29 H8          -0.1970     2.1600     2.6500 h1         1 16J       0.065950
     30 H9          -1.5120     3.2620     3.2370 h1         1 16J       0.069200
     31 H10         -1.4920     1.5190     2.9000 h1         1 16J       0.069200
     32 H11         -3.4250     2.2370     4.3480 h1         1 16J       0.052700
     33 H12         -3.9260     1.4570     2.8370 h1         1 16J       0.052700
     34 H13         -2.5070     4.7790     1.1600 h1         1 16J       0.069200
     35 H14         -3.0020     3.8200    -0.2490 h1         1 16J       0.069200
     36 H15         -4.9330     4.5360     1.2050 h1         1 16J       0.052700
     37 H16         -4.7940     2.7770     1.0300 h1         1 16J       0.052700
     38 H17         -6.0560     5.4100     2.6450 ha         1 16J       0.142000
     39 H18         -8.2730     5.4110     3.7210 ha         1 16J       0.144500
     40 H19         -7.3820     1.6680     5.5800 ha         1 16J       0.144500
     41 H20         -5.1650     1.6570     4.5060 ha         1 16J       0.142000
@<TRIPOS>BOND
     1     3     2 1
     2     3     4 1
     3     2     1 1
     4     4     5 1
     5     1     6 1
     6     5     6 1
     7     6     7 1
     8     7     8 2
     9     7     9 1
    10    21    20 ar
    11    21    15 ar
    12    20    18 ar
    13    11    10 1
    14    11    14 1
    15    10     9 1
    16     9    12 1
    17    14    15 1
    18    14    13 1
    19    15    16 ar
    20    19    18 1
    21    18    17 ar
    22    12    13 1
    23    16    17 ar
    24     1    22 1
    25     1    23 1
    26     2    24 1
    27     2    25 1
    28     4    26 1
    29     4    27 1
    30     5    28 1
    31     5    29 1
    32    10    30 1
    33    10    31 1
    34    11    32 1
    35    11    33 1
    36    12    34 1
    37    12    35 1
    38    13    36 1
    39    13    37 1
    40    16    38 1
    41    17    39 1
    42    20    40 1
    43    21    41 1
@<TRIPOS>SUBSTRUCTURE
     1 16J         1 TEMP              0 ****  ****    0 ROOT
