@<TRIPOS>MOLECULE
16J
   41    43     1     0     0
SMALL
bcc


@<TRIPOS>ATOM
      1 CAI          0.1650     0.1910     0.2270 c3         1 16J       0.046500
      2 CAG          1.2170     0.7940     1.1580 c3         1 16J       0.119900
      3 OAO          1.0700     0.4440     2.5320 os         1 16J      -0.417600
      4 CAH          0.0130    -0.4640     2.7980 c3         1 16J       0.119900
      5 CAJ         -0.0030    -1.6490     1.8240 c3         1 16J       0.046500
      6 NAS         -0.0030    -1.2380     0.4340 n          1 16J      -0.442800
      7 CAP         -0.8510    -1.8840    -0.5030 c          1 16J       0.744100
      8 OAA         -1.3570    -1.2270    -1.4440 o          1 16J      -0.627100
      9 NAT         -1.1290    -3.2670    -0.3840 n          1 16J      -0.450800
     10 CAL         -0.1490    -4.1740     0.1710 c3         1 16J       0.074000
     11 CAN         -0.0060    -5.4990    -0.6110 c3         1 16J       0.184300
     12 CAK         -1.9770    -3.8190    -1.4250 c3         1 16J       0.074000
     13 CAM         -2.3810    -5.2800    -1.1510 c3         1 16J       0.184300
     14 NAU         -1.2720    -6.1620    -0.8340 nh         1 16J      -0.652000
     15 CAR         -1.2480    -7.4200    -1.4690 ca         1 16J       0.156600
     16 CAE         -2.4590    -8.1300    -1.6660 ca         1 16J      -0.176000
     17 CAC         -2.4550    -9.4060    -2.2140 ca         1 16J      -0.091000
     18 CAQ         -1.2490   -10.0110    -2.5780 ca         1 16J      -0.020600
     19 ClA         -1.2500   -11.5740    -3.2470 cl         1 16J      -0.098400
     20 CAD         -0.0440    -9.3310    -2.3910 ca         1 16J      -0.091000
     21 CAF         -0.0400    -8.0500    -1.8490 ca         1 16J      -0.176000
     22 H1          -0.8160     0.7300     0.3740 h1         1 16J       0.060950
     23 H2           0.4830     0.3530    -0.8420 h1         1 16J       0.060950
     24 H3           2.2500     0.4640     0.8640 h1         1 16J       0.055950
     25 H4           1.1510     1.9140     1.1090 h1         1 16J       0.055950
     26 H5           0.2140    -0.8290     3.8400 h1         1 16J       0.055950
     27 H6          -0.9650     0.0860     2.7680 h1         1 16J       0.055950
     28 H7           0.9260    -2.2660     1.9900 h1         1 16J       0.060950
     29 H8          -0.8970    -2.2870     2.0730 h1         1 16J       0.060950
     30 H9          -0.4620    -4.4050     1.2300 h1         1 16J       0.060450
     31 H10          0.8780    -3.7100     0.2020 h1         1 16J       0.060450
     32 H11          0.5280    -5.2890    -1.5840 h1         1 16J       0.053200
     33 H12          0.6440    -6.1830     0.0070 h1         1 16J       0.053200
     34 H13         -2.9140    -3.1950    -1.4780 h1         1 16J       0.060450
     35 H14         -1.4650    -3.7510    -2.4290 h1         1 16J       0.060450
     36 H15         -2.9420    -5.6350    -2.0620 h1         1 16J       0.053200
     37 H16         -3.0870    -5.3130    -0.2720 h1         1 16J       0.053200
     38 H17         -3.4200    -7.6830    -1.3690 ha         1 16J       0.138000
     39 H18         -3.4080    -9.9400    -2.3560 ha         1 16J       0.146000
     40 H19          0.9090    -9.8030    -2.6760 ha         1 16J       0.146000
     41 H20          0.9280    -7.5420    -1.7250 ha         1 16J       0.138000
@<TRIPOS>BOND
     1     1     2 1   
     2     1     6 1   
     3     1    22 1   
     4     1    23 1   
     5     2     3 1   
     6     2    24 1   
     7     2    25 1   
     8     3     4 1   
     9     4     5 1   
    10     4    26 1   
    11     4    27 1   
    12     5     6 1   
    13     5    28 1   
    14     5    29 1   
    15     6     7 1   
    16     7     8 2   
    17     7     9 1   
    18     9    10 1   
    19     9    12 1   
    20    10    11 1   
    21    10    30 1   
    22    10    31 1   
    23    11    14 1   
    24    11    32 1   
    25    11    33 1   
    26    12    13 1   
    27    12    34 1   
    28    12    35 1   
    29    13    14 1   
    30    13    36 1   
    31    13    37 1   
    32    14    15 1   
    33    15    16 ar  
    34    15    21 ar  
    35    16    17 ar  
    36    16    38 1   
    37    17    18 ar  
    38    17    39 1   
    39    18    19 1   
    40    18    20 ar  
    41    20    21 ar  
    42    20    40 1   
    43    21    41 1   
@<TRIPOS>SUBSTRUCTURE
     1 16J         1 TEMP              0 ****  ****    0 ROOT
