@<TRIPOS>MOLECULE
16K
   36    38     1     0     0
SMALL
bcc


@<TRIPOS>ATOM
      1 S           -0.1390    -0.4850     0.0950 ss         1 16K      -0.014300
      2 C1           1.5180    -0.2280    -0.0420 cc         1 16K      -0.304900
      3 N1           1.5100     0.3730    -2.3720 nb         1 16K      -0.745000
      4 O1          -1.9320     3.6220    -1.9850 o          1 16K      -0.206500
      5 C2           2.1920    -0.1690    -1.3260 ca         1 16K       0.574800
      6 N2           3.4510    -0.0710    -3.8170 nb         1 16K      -0.739000
      7 O2          -3.7690     3.2480    -2.9380 o          1 16K      -0.206500
      8 C3           2.1670     0.4220    -3.5840 ca         1 16K       0.865900
      9 N3           1.5440     1.0660    -4.6810 nu         1 16K      -0.707300
     10 C4           4.0740    -0.6020    -2.7580 ca         1 16K       0.463200
     11 N4          -2.5770     3.1110    -2.8610 no         1 16K       0.312200
     12 C5           3.4980    -0.6840    -1.4770 ca         1 16K      -0.394600
     13 N5           1.1880    -0.1860     2.2790 nd         1 16K      -0.641000
     14 C6           0.1460     1.2600    -4.7280 ca         1 16K       0.127600
     15 C7          -0.5070     2.0540    -3.7620 ca         1 16K      -0.051000
     16 C8          -1.8840     2.2820    -3.8850 ca         1 16K      -0.165200
     17 C9          -2.6270     1.7540    -4.9530 ca         1 16K      -0.082000
     18 C10         -1.9680     0.9860    -5.9080 ca         1 16K      -0.125000
     19 C11         -0.6040     0.7320    -5.8030 ca         1 16K      -0.130000
     20 C12          2.0910    -0.0710     1.2300 cd         1 16K       0.390600
     21 C13         -0.0420    -0.4140     1.7970 cc         1 16K       0.392700
     22 C14         -1.2470    -0.5870     2.6350 c3         1 16K      -0.134400
     23 C15          3.5210     0.2140     1.4980 c3         1 16K      -0.134400
     24 HN3          1.9580     0.8550    -5.5690 hn         1 16K       0.442800
     25 H4           5.0910    -0.9920    -2.9500 h4         1 16K       0.032100
     26 H5           4.0330    -1.1450    -0.6390 ha         1 16K       0.164000
     27 H7           0.0520     2.4960    -2.9160 ha         1 16K       0.193000
     28 H9          -3.7100     1.9460    -5.0310 ha         1 16K       0.172000
     29 H10         -2.5360     0.5690    -6.7540 ha         1 16K       0.149000
     30 H11         -0.1130     0.1150    -6.5740 ha         1 16K       0.144000
     31 H14         -2.1400    -0.7870     1.9930 hc         1 16K       0.062033
     32 H14A        -1.4390     0.3370     3.2380 hc         1 16K       0.062033
     33 H14B        -1.1140    -1.4440     3.3440 hc         1 16K       0.062033
     34 H15          3.6440     0.8320     2.4230 hc         1 16K       0.057033
     35 H15A         3.9690     0.7680     0.6360 hc         1 16K       0.057033
     36 H15B         4.0770    -0.7460     1.6420 hc         1 16K       0.057033
@<TRIPOS>BOND
     1     1     2 1   
     2     1    21 1   
     3     2     5 1   
     4     2    20 2   
     5     3     5 ar  
     6     3     8 ar  
     7     4    11 1   
     8     5    12 ar  
     9     6     8 ar  
    10     6    10 ar  
    11     7    11 1   
    12     8     9 1   
    13     9    14 1   
    14     9    24 1   
    15    10    12 ar  
    16    10    25 1   
    17    11    16 1   
    18    12    26 1   
    19    13    20 1   
    20    13    21 2   
    21    14    15 ar  
    22    14    19 ar  
    23    15    16 ar  
    24    15    27 1   
    25    16    17 ar  
    26    17    18 ar  
    27    17    28 1   
    28    18    19 ar  
    29    18    29 1   
    30    19    30 1   
    31    20    23 1   
    32    21    22 1   
    33    22    31 1   
    34    22    32 1   
    35    22    33 1   
    36    23    34 1   
    37    23    35 1   
    38    23    36 1   
@<TRIPOS>SUBSTRUCTURE
     1 16K         1 TEMP              0 ****  ****    0 ROOT
