@<TRIPOS>MOLECULE
molecule
   36    38     1     0     0
SMALL
bcc


@<TRIPOS>ATOM
      1 S            0.0000     0.0000     0.0000 ss         1 16K      -0.184300
      2 C1           1.7630     0.0000     0.0000 cc         1 16K      -0.249900
      3 N1           3.9590     0.0030    -1.0620 nb         1 16K      -0.791000
      4 O1          10.6610     1.7960    -3.2490 o          1 16K      -0.206000
      5 C2           2.6330     0.0020    -1.1920 ca         1 16K       0.611800
      6 N2           4.2410     0.0030    -3.3580 nb         1 16K      -0.802000
      7 O2          11.0490     1.0210    -5.1730 o          1 16K      -0.206000
      8 C3           4.7410     0.0040    -2.1310 ca         1 16K       0.940900
      9 N3           6.1150     0.0040    -1.9620 nu         1 16K      -0.754300
     10 C4           2.9320     0.0030    -3.5630 ca         1 16K       0.501200
     11 N4          10.3170     1.1230    -4.2040 no         1 16K       0.294200
     12 C5           2.0770     0.0020    -2.4780 ca         1 16K      -0.426600
     13 N5           1.1990    -0.0000     2.1670 nd         1 16K      -0.693000
     14 C6           6.9560    -0.1100    -3.0730 ca         1 16K       0.163600
     15 C7           8.1820     0.5420    -3.0870 ca         1 16K      -0.116000
     16 C8           9.0110     0.4270    -4.1860 ca         1 16K      -0.136200
     17 C9           8.6210    -0.3380    -5.2710 ca         1 16K      -0.093000
     18 C10          7.4010    -0.9890    -5.2590 ca         1 16K      -0.119000
     19 C11          6.5700    -0.8820    -4.1610 ca         1 16K      -0.088000
     20 C12          2.1750     0.0000     1.2890 cd         1 16K       0.442600
     21 C13         -0.0090    -0.0000     1.7090 cc         1 16K       0.470700
     22 C14         -1.2520    -0.0010     2.5630 c3         1 16K      -0.116400
     23 C15          3.6300     0.0010     1.6810 c3         1 16K      -0.112400
     24 HN3          6.5060     0.0860    -1.0440 hn         1 16K       0.473800
     25 H4           2.5370     0.0020    -4.5720 h4         1 16K       0.034100
     26 H5           1.0030     0.0010    -2.6180 ha         1 16K       0.152000
     27 H7           8.4660     1.1810    -2.2600 ha         1 16K       0.167000
     28 H9           9.2710    -0.4240    -6.1330 ha         1 16K       0.165000
     29 H10          7.1000    -1.5890    -6.1090 ha         1 16K       0.149000
     30 H11          5.6150    -1.3910    -4.1530 ha         1 16K       0.169000
     31 H14         -2.1280     0.0040     1.9260 hc         1 16K       0.061700
     32 H14A        -1.2620    -0.8880     3.1850 hc         1 16K       0.061700
     33 H14B        -1.2580     0.8810     3.1920 hc         1 16K       0.061700
     34 H15          3.7130    -0.0010     2.7610 hc         1 16K       0.058700
     35 H15A         4.1110     0.8860     1.2830 hc         1 16K       0.058700
     36 H15B         4.1120    -0.8830     1.2800 hc         1 16K       0.058700
@<TRIPOS>BOND
     1     1    21 1
     2     2     1 1
     3     2    20 2
     4     3     5 ar
     5     5     2 1
     6     6     8 ar
     7     6    10 ar
     8     8     3 ar
     9     9     8 1
    10     9    14 1
    11     9    24 1
    12    10    12 ar
    13    10    25 1
    14    11     4 1
    15    11     7 1
    16    12     5 ar
    17    12    26 1
    18    13    21 2
    19    14    15 ar
    20    15    16 ar
    21    15    27 1
    22    16    11 1
    23    17    16 ar
    24    17    28 1
    25    18    17 ar
    26    18    29 1
    27    19    14 ar
    28    19    18 ar
    29    19    30 1
    30    20    13 1
    31    21    22 1
    32    22    31 1
    33    22    32 1
    34    22    33 1
    35    23    20 1
    36    23    34 1
    37    23    35 1
    38    23    36 1
@<TRIPOS>SUBSTRUCTURE
     1 16K         1 TEMP              0 ****  ****    0 ROOT
