@<TRIPOS>MOLECULE
16K
   36    38     1     0     0
SMALL
bcc


@<TRIPOS>ATOM
      1 S            0.0000     0.0000     0.0000 ss         1 16K      -0.288300
      2 C1           1.7630     0.0000     0.0000 cc         1 16K      -0.211900
      3 N1           3.9590     0.0030    -1.0620 nb         1 16K      -0.683000
      4 O1          10.6610     1.7960    -3.2490 o          1 16K      -0.451500
      5 C2           2.6330     0.0020    -1.1920 ca         1 16K       0.579800
      6 N2           4.2410     0.0030    -3.3580 nb         1 16K      -0.701000
      7 O2          11.0490     1.0210    -5.1730 o          1 16K      -0.451500
      8 C3           4.7410     0.0040    -2.1310 ca         1 16K       0.706900
      9 N3           6.1150     0.0040    -1.9620 nu         1 16K      -0.287300
     10 C4           2.9320     0.0030    -3.5630 ca         1 16K       0.495200
     11 N4          10.3170     1.1230    -4.2040 no         1 16K       1.048200
     12 C5           2.0770     0.0020    -2.4780 ca         1 16K      -0.401600
     13 N5           1.1990    -0.0000     2.1670 nd         1 16K      -0.568000
     14 C6           6.9560    -0.1100    -3.0730 ca         1 16K      -0.009400
     15 C7           8.1820     0.5420    -3.0870 ca         1 16K      -0.054000
     16 C8           9.0110     0.4270    -4.1860 ca         1 16K      -0.428200
     17 C9           8.6210    -0.3380    -5.2710 ca         1 16K      -0.033000
     18 C10          7.4010    -0.9890    -5.2590 ca         1 16K      -0.098000
     19 C11          6.5700    -0.8820    -4.1610 ca         1 16K      -0.054000
     20 C12          2.1750     0.0000     1.2890 cd         1 16K       0.391600
     21 C13         -0.0090    -0.0000     1.7090 cc         1 16K       0.455700
     22 C14         -1.2520    -0.0010     2.5630 c3         1 16K      -0.002400
     23 C15          3.6300     0.0010     1.6810 c3         1 16K      -0.023400
     24 HN3          6.5060     0.0860    -1.0440 hn         1 16K       0.298800
     25 H4           2.5370     0.0020    -4.5720 h4         1 16K      -0.014900
     26 H5           1.0030     0.0010    -2.6180 ha         1 16K       0.138000
     27 H7           8.4660     1.1810    -2.2600 ha         1 16K       0.136000
     28 H9           9.2710    -0.4240    -6.1330 ha         1 16K       0.132000
     29 H10          7.1000    -1.5890    -6.1090 ha         1 16K       0.114000
     30 H11          5.6150    -1.3910    -4.1530 ha         1 16K       0.139000
     31 H14         -2.1280     0.0040     1.9260 hc         1 16K       0.020367
     32 H14A        -1.2620    -0.8880     3.1850 hc         1 16K       0.020367
     33 H14B        -1.2580     0.8810     3.1920 hc         1 16K       0.020367
     34 H15          3.7130    -0.0010     2.7610 hc         1 16K       0.021367
     35 H15A         4.1110     0.8860     1.2830 hc         1 16K       0.021367
     36 H15B         4.1120    -0.8830     1.2800 hc         1 16K       0.021367
@<TRIPOS>BOND
     1     1     2 1   
     2     1    21 1   
     3     2     5 1   
     4     2    20 2   
     5     3     5 ar  
     6     3     8 ar  
     7     4    11 1   
     8     5    12 ar  
     9     6     8 ar  
    10     6    10 ar  
    11     7    11 1   
    12     8     9 1   
    13     9    14 1   
    14     9    24 1   
    15    10    12 ar  
    16    10    25 1   
    17    11    16 1   
    18    12    26 1   
    19    13    20 1   
    20    13    21 2   
    21    14    15 ar  
    22    14    19 ar  
    23    15    16 ar  
    24    15    27 1   
    25    16    17 ar  
    26    17    18 ar  
    27    17    28 1   
    28    18    19 ar  
    29    18    29 1   
    30    19    30 1   
    31    20    23 1   
    32    21    22 1   
    33    22    31 1   
    34    22    32 1   
    35    22    33 1   
    36    23    34 1   
    37    23    35 1   
    38    23    36 1   
@<TRIPOS>SUBSTRUCTURE
     1 16K         1 TEMP              0 ****  ****    0 ROOT
