@<TRIPOS>MOLECULE
16L
   41    42     1     0     0
SMALL
bcc


@<TRIPOS>ATOM
      1 CAB          1.5340    -1.7470     0.8260 c3         1 16L      -0.047800
      2 CAQ          2.4660    -0.5990     0.7420 ca         1 16L      -0.129300
      3 CAL          2.9430     0.0070     1.9080 ca         1 16L      -0.085000
      4 CAV          2.8910    -0.0970    -0.5010 ca         1 16L       0.127100
      5 OAE          2.4820    -0.6240    -1.7050 oh         1 16L      -0.498100
      6 CAR          3.7760     1.0000    -0.5810 ca         1 16L      -0.129300
      7 CAC          4.2060     1.5050    -1.9040 c3         1 16L      -0.047800
      8 CAM          4.2240     1.5850     0.6010 ca         1 16L      -0.085000
      9 CAT          3.8210     1.0940     1.8530 ca         1 16L      -0.093800
     10 CAH          4.2890     1.7660     3.0530 ce         1 16L      -0.090200
     11 CAG          4.5700     1.2390     4.2530 cf         1 16L      -0.117200
     12 CAS          4.5390    -0.1600     4.6560 ca         1 16L      -0.032800
     13 CAN          3.9950    -0.4890     5.9010 ca         1 16L      -0.181000
     14 CAJ          5.0900    -1.1670     3.8530 ca         1 16L      -0.141000
     15 CAI          5.0920    -2.4840     4.3000 ca         1 16L      -0.109000
     16 CAK          4.5480    -2.8290     5.5340 ca         1 16L      -0.152000
     17 CAU          3.9840    -1.8300     6.3560 ca         1 16L       0.068600
     18 NAO          3.4250    -2.0960     7.6170 ns         1 16L      -0.469100
     19 CAP          3.1500    -3.3380     8.1750 c          1 16L       0.666300
     20 OAD          3.4020    -4.4110     7.5930 o          1 16L      -0.595100
     21 CAF          2.5310    -3.3200     9.5320 ce         1 16L      -0.245200
     22 CAA          2.1940    -4.4570    10.1410 c2         1 16L      -0.126000
     23 H1           1.3120    -2.0060     1.8900 hc         1 16L       0.046033
     24 H2           1.9780    -2.6500     0.3350 hc         1 16L       0.046033
     25 H3           0.5670    -1.5060     0.3170 hc         1 16L       0.046033
     26 H4           2.6260    -0.3820     2.8900 ha         1 16L       0.140000
     27 H5           1.8840    -1.3640    -1.5260 ho         1 16L       0.421000
     28 H6           4.8910     2.3810    -1.8040 hc         1 16L       0.046033
     29 H7           4.7330     0.6960    -2.4690 hc         1 16L       0.046033
     30 H8           3.3120     1.8120    -2.5050 hc         1 16L       0.046033
     31 H9           4.9100     2.4450     0.5510 ha         1 16L       0.140000
     32 H10          4.4150     2.8590     2.9250 ha         1 16L       0.123000
     33 H11          4.8780     1.9240     5.0660 ha         1 16L       0.125000
     34 H12          3.5720     0.3150     6.5230 ha         1 16L       0.129000
     35 H13          5.5150    -0.9080     2.8710 ha         1 16L       0.144000
     36 H14          5.5300    -3.2730     3.6700 ha         1 16L       0.136000
     37 H15          4.5620    -3.8820     5.8560 ha         1 16L       0.173000
     38 H16          3.1520    -1.2930     8.1390 hn         1 16L       0.314500
     39 H17          2.3680    -2.3400    10.0070 ha         1 16L       0.131000
     40 H19          1.7380    -4.4690    11.1410 ha         1 16L       0.131500
     41 H20          2.3560    -5.4410     9.6750 ha         1 16L       0.131500
@<TRIPOS>BOND
     1     1     2 1   
     2     1    23 1   
     3     1    24 1   
     4     1    25 1   
     5     2     3 ar  
     6     2     4 ar  
     7     3     9 ar  
     8     3    26 1   
     9     4     5 1   
    10     4     6 ar  
    11     5    27 1   
    12     6     7 1   
    13     6     8 ar  
    14     7    28 1   
    15     7    29 1   
    16     7    30 1   
    17     8     9 ar  
    18     8    31 1   
    19     9    10 1   
    20    10    11 2   
    21    10    32 1   
    22    11    12 1   
    23    11    33 1   
    24    12    13 ar  
    25    12    14 ar  
    26    13    17 ar  
    27    13    34 1   
    28    14    15 ar  
    29    14    35 1   
    30    15    16 ar  
    31    15    36 1   
    32    16    17 ar  
    33    16    37 1   
    34    17    18 1   
    35    18    19 1   
    36    18    38 1   
    37    19    20 2   
    38    19    21 1   
    39    21    22 2   
    40    21    39 1   
    41    22    40 1   
    42    22    41 1   
@<TRIPOS>SUBSTRUCTURE
     1 16L         1 TEMP              0 ****  ****    0 ROOT
