@<TRIPOS>MOLECULE
16L
   41    44     1     0     0
SMALL
bcc


@<TRIPOS>ATOM
      1 CAB          0.0000     0.0000     0.0000 c3         1 16L      -0.056500
      2 CAQ          1.5080     0.0000     0.0000 c2         1 16L      -0.071000
      3 CAL          2.1950     0.0000     1.1950 c2         1 16L      -0.161500
      4 CAV          2.2010    -0.0070    -1.2030 c2         1 16L       0.031000
      5 OAE          1.5190    -0.0130    -2.3780 oh         1 16L      -0.248000
      6 CAR          3.5900    -0.0060    -1.2090 c2         1 16L      -0.071000
      7 CAC          4.3360    -0.0140    -2.5180 c3         1 16L      -0.056500
      8 CAM          4.2860     0.0000    -0.0200 c2         1 16L      -0.161500
      9 CAT          3.5930    -0.0000     1.1940 c3         1 16L       0.028000
     10 CAH          4.3320     0.0010     2.4680 c2         1 16L      -0.052000
     11 CAG          5.6750     0.0010     2.4640 c2         1 16L      -0.045000
     12 CAS          6.4160     0.0020     3.7390 c3         1 16L       0.074000
     13 CAN          7.8120     0.0080     3.7380 c2         1 16L      -0.182000
     14 CAJ          5.7220     0.0030     4.9520 c2         1 16L      -0.192000
     15 CAI          6.4180     0.0040     6.1440 c2         1 16L      -0.039000
     16 CAK          7.8000     0.0040     6.1430 c2         1 16L      -0.185000
     17 CAU          8.5010     0.0080     4.9410 c2         1 16L      -0.040000
     18 NAO          9.8980     0.0140     4.9470 ns         1 16L       0.121000
     19 CAP         10.5730     0.6600     3.9760 c2         1 16L       0.245000
     20 OAD          9.9700     1.3190     3.1500 o          1 16L      -0.402000
     21 CAF         12.0400     0.5710     3.9140 c2         1 16L      -0.230000
     22 CAA         12.7060     1.2090     2.9560 c2         1 16L      -0.049000
     23 H1          -0.3610     0.7960    -0.6400 hc         1 16L       0.049000
     24 H2          -0.3610    -0.9520    -0.3690 hc         1 16L       0.049000
     25 H3          -0.3610     0.1570     1.0090 hc         1 16L       0.049000
     26 H4           1.6530    -0.0000     2.1330 ha         1 16L       0.123500
     27 H5           1.3610    -0.9040    -2.6450 ho         1 16L       0.197000
     28 H6           3.9600     0.7790    -3.1530 hc         1 16L       0.049000
     29 H7           4.1940    -0.9680    -3.0100 hc         1 16L       0.049000
     30 H8           5.3920     0.1430    -2.3320 hc         1 16L       0.049000
     31 H9           5.3700     0.0000    -0.0250 ha         1 16L       0.123500
     32 H10          4.1840     0.8750     1.8450 DU         1 16L       0.080000
     33 H11          5.8240     0.8760     3.0840 DU         1 16L       0.071000
     34 H12          8.3550     0.0110     2.8010 ha         1 16L       0.153000
     35 H13          4.6390     0.0030     4.9570 ha         1 16L       0.122000
     36 H14          5.8800     0.0030     7.0840 ha         1 16L       0.102000
     37 H15          8.3410     0.0050     7.0820 ha         1 16L       0.107000
     38 H16         10.3970    -0.4770     5.6620 hn         1 16L       0.082000
     39 H17         12.5780    -0.0160     4.6490 ha         1 16L       0.105000
     40 H19         12.1680     1.7960     2.2210 ha         1 16L       0.092000
     41 H20         13.7860     1.1430     2.9110 ha         1 16L       0.092000
@<TRIPOS>BOND
     1     1     2 1   
     2     1    23 1   
     3     1    24 1   
     4     1    25 1   
     5     2     3 1   
     6     2     4 1   
     7     3     9 1   
     8     3    26 1   
     9     4     5 1   
    10     4     6 1   
    11     5    27 1   
    12     6     7 1   
    13     6     8 1   
    14     7    28 1   
    15     7    29 1   
    16     7    30 1   
    17     8     9 1   
    18     8    31 1   
    19     9    10 1   
    20     9    32 1   
    21    10    11 1   
    22    10    32 1   
    23    11    12 1   
    24    11    33 1   
    25    12    13 1   
    26    12    14 1   
    27    12    33 1   
    28    13    17 1   
    29    13    34 1   
    30    14    15 1   
    31    14    35 1   
    32    15    16 1   
    33    15    36 1   
    34    16    17 1   
    35    16    37 1   
    36    17    18 1   
    37    18    19 1   
    38    18    38 1   
    39    19    20 1   
    40    19    21 1   
    41    21    22 1   
    42    21    39 1   
    43    22    40 1   
    44    22    41 1   
@<TRIPOS>SUBSTRUCTURE
     1 16L         1 TEMP              0 ****  ****    0 ROOT
