@<TRIPOS>MOLECULE
molecule
   41    42     1     0     0
SMALL
bcc


@<TRIPOS>ATOM
      1 CAB          0.0000     0.0000     0.0000 c3         1 16L      -0.042800
      2 CAQ          1.5080     0.0000     0.0000 ca         1 16L      -0.099800
      3 CAL          2.1950     0.0000     1.1950 ca         1 16L      -0.113000
      4 CAV          2.2010    -0.0070    -1.2030 ca         1 16L       0.100100
      5 OAE          1.5190    -0.0130    -2.3780 oh         1 16L      -0.520100
      6 CAR          3.5900    -0.0060    -1.2090 ca         1 16L      -0.099800
      7 CAC          4.3360    -0.0140    -2.5180 c3         1 16L      -0.042800
      8 CAM          4.2860     0.0000    -0.0200 ca         1 16L      -0.113000
      9 CAT          3.5930    -0.0000     1.1940 ca         1 16L      -0.057800
     10 CAH          4.3320     0.0010     2.4680 ce         1 16L      -0.111200
     11 CAG          5.6750     0.0010     2.4640 cf         1 16L      -0.104200
     12 CAS          6.4160     0.0020     3.7390 ca         1 16L      -0.041800
     13 CAN          7.8120     0.0080     3.7380 ca         1 16L      -0.115000
     14 CAJ          5.7220     0.0030     4.9520 ca         1 16L      -0.138000
     15 CAI          6.4180     0.0040     6.1440 ca         1 16L      -0.110000
     16 CAK          7.8000     0.0040     6.1430 ca         1 16L      -0.161000
     17 CAU          8.5010     0.0080     4.9410 ca         1 16L       0.057600
     18 NAO          9.8980     0.0140     4.9470 ns         1 16L      -0.473100
     19 CAP         10.5730     0.6600     3.9760 c          1 16L       0.662300
     20 OAD          9.9700     1.3190     3.1500 o          1 16L      -0.599100
     21 CAF         12.0400     0.5710     3.9140 ce         1 16L      -0.255200
     22 CAA         12.7060     1.2090     2.9560 c2         1 16L      -0.124000
     23 H1          -0.3610    -0.7840    -0.6540 hc         1 16L       0.045367
     24 H2          -0.3610    -0.1740     1.0060 hc         1 16L       0.045367
     25 H3          -0.3610     0.9590    -0.3520 hc         1 16L       0.045367
     26 H4           1.6530    -0.0000     2.1330 ha         1 16L       0.136000
     27 H5           1.3540     0.8740    -2.6510 ho         1 16L       0.417000
     28 H6           3.9790    -0.8310    -3.1330 hc         1 16L       0.045367
     29 H7           4.1710     0.9250    -3.0330 hc         1 16L       0.045367
     30 H8           5.3950    -0.1400    -2.3290 hc         1 16L       0.045367
     31 H9           5.3700     0.0000    -0.0250 ha         1 16L       0.136000
     32 H10          3.7930     0.0020     3.4070 ha         1 16L       0.134000
     33 H11          6.2150    -0.0000     1.5240 ha         1 16L       0.138000
     34 H12          8.3550     0.0110     2.8010 ha         1 16L       0.162000
     35 H13          4.6390     0.0030     4.9570 ha         1 16L       0.133000
     36 H14          5.8800     0.0030     7.0840 ha         1 16L       0.131000
     37 H15          8.3410     0.0050     7.0820 ha         1 16L       0.128000
     38 H16         10.3970    -0.4870     5.6550 hn         1 16L       0.324500
     39 H17         12.5780    -0.0160     4.6490 ha         1 16L       0.127000
     40 H19         13.7860     1.1430     2.9110 ha         1 16L       0.131000
     41 H20         12.1680     1.7960     2.2210 ha         1 16L       0.131000
@<TRIPOS>BOND
     1     5     4 1
     2     7     6 1
     3     4     6 ar
     4     4     2 ar
     5     1     2 1
     6     6     8 ar
     7     2     3 ar
     8     8     9 ar
     9     3     9 ar
    10     9    10 1
    11    10    11 2
    12    11    12 1
    13    12    14 ar
    14    12    13 ar
    15    14    15 ar
    16    13    17 ar
    17    20    19 2
    18    15    16 ar
    19    17    16 ar
    20    17    18 1
    21    19    18 1
    22    19    21 1
    23    22    21 2
    24     1    23 1
    25     1    24 1
    26     1    25 1
    27     3    26 1
    28     5    27 1
    29     7    28 1
    30     7    29 1
    31     7    30 1
    32     8    31 1
    33    10    32 1
    34    11    33 1
    35    13    34 1
    36    14    35 1
    37    15    36 1
    38    16    37 1
    39    18    38 1
    40    21    39 1
    41    22    40 1
    42    22    41 1
@<TRIPOS>SUBSTRUCTURE
     1 16L         1 TEMP              0 ****  ****    0 ROOT
