@<TRIPOS>MOLECULE
16M
   19    19     1     0     0
SMALL
bcc


@<TRIPOS>ATOM
      1 C9           0.3900     0.9640    -0.5590 c3         1 16M      -0.095100
      2 C8           1.0760    -0.2860    -0.0900 c3         1 16M      -0.035300
      3 S7           1.9190    -0.1170     1.4510 ss         1 16M      -0.190000
      4 C4           0.7560    -0.2110     2.6810 ca         1 16M       0.004900
      5 C3          -0.6190    -0.3860     2.5020 ca         1 16M      -0.134000
      6 C5           1.2660    -0.1070     3.9850 ca         1 16M      -0.134000
      7 C6           0.4150    -0.1790     5.0820 ca         1 16M      -0.113500
      8 C1          -0.9580    -0.3560     4.8960 ca         1 16M      -0.141000
      9 C2          -1.4700    -0.4590     3.6040 ca         1 16M      -0.113500
     10 H1           1.1100     1.8160    -0.6130 hc         1 16M       0.044700
     11 H2          -0.0450     0.8050    -1.5770 hc         1 16M       0.044700
     12 H3          -0.4390     1.2490     0.1350 hc         1 16M       0.044700
     13 H4           1.8980    -0.5610    -0.8020 h1         1 16M       0.075700
     14 H5           0.3540    -1.1380    -0.0610 h1         1 16M       0.075700
     15 H6          -1.0410    -0.4660     1.4890 ha         1 16M       0.135500
     16 H7           2.3480     0.0330     4.1340 ha         1 16M       0.135500
     17 H8           0.8250    -0.0970     6.0990 ha         1 16M       0.132000
     18 H9          -1.6300    -0.4140     5.7640 ha         1 16M       0.132000
     19 H10         -2.5500    -0.5980     3.4490 ha         1 16M       0.132000
@<TRIPOS>BOND
     1     1     2 1   
     2     1    10 1   
     3     1    11 1   
     4     1    12 1   
     5     2     3 1   
     6     2    13 1   
     7     2    14 1   
     8     3     4 1   
     9     4     5 ar  
    10     4     6 ar  
    11     5     9 ar  
    12     5    15 1   
    13     6     7 ar  
    14     6    16 1   
    15     7     8 ar  
    16     7    17 1   
    17     8     9 ar  
    18     8    18 1   
    19     9    19 1   
@<TRIPOS>SUBSTRUCTURE
     1 16M         1 TEMP              0 ****  ****    0 ROOT
