@<TRIPOS>MOLECULE
16M
   19    19     1     0     0
SMALL
bcc


@<TRIPOS>ATOM
      1 C9          0.0010   -0.0030    0.1410 c3        1 16M     -0.088100
      2 C8          1.4920   -0.0040   -0.0380 c3        1 16M     -0.032300
      3 S7          2.1930    0.0030    1.5860 ss        1 16M     -0.189000
      4 C4          3.8730    0.0010    1.3650 ca        1 16M      0.002900
      5 C3          4.6340    0.0050    2.5450 ca        1 16M     -0.134000
      6 C5          4.5320   -0.0040    0.1320 ca        1 16M     -0.134000
      7 C6          5.9260   -0.0050    0.0780 ca        1 16M     -0.113500
      8 C1          6.6750   -0.0010    1.2520 ca        1 16M     -0.141000
      9 C2          6.0230    0.0040    2.4870 ca        1 16M     -0.113500
     10 H1         -0.3330   -0.9070    0.7070 hc        1 16M      0.048367
     11 H2         -0.5020   -0.0080   -0.8580 hc        1 16M      0.048367
     12 H3         -0.3330    0.9060    0.6980 hc        1 16M      0.048367
     13 H4          1.8200   -0.9090   -0.6060 h1        1 16M      0.065700
     14 H5          1.8200    0.8960   -0.6140 h1        1 16M      0.065700
     15 H6          4.1210    0.0100    3.5200 ha        1 16M      0.135000
     16 H7          3.9570   -0.0070   -0.8060 ha        1 16M      0.135000
     17 H8          6.4310   -0.0100   -0.8990 ha        1 16M      0.132000
     18 H9          7.7730   -0.0020    1.2080 ha        1 16M      0.132000
     19 H10         6.6090    0.0070    3.4180 ha        1 16M      0.132000
@<TRIPOS>BOND
     1    1    2 1   
     2    1   10 1   
     3    1   11 1   
     4    1   12 1   
     5    2    3 1   
     6    2   13 1   
     7    2   14 1   
     8    3    4 1   
     9    4    5 ar  
    10    4    6 ar  
    11    5    9 ar  
    12    5   15 1   
    13    6    7 ar  
    14    6   16 1   
    15    7    8 ar  
    16    7   17 1   
    17    8    9 ar  
    18    8   18 1   
    19    9   19 1   
@<TRIPOS>SUBSTRUCTURE
     1 16M         1 TEMP              0 ****  ****    0 ROOT
