@<TRIPOS>MOLECULE
molecule
   19    19     1     0     0
SMALL
bcc


@<TRIPOS>ATOM
      1 C9           0.0000     0.0000     0.0000 c3         1 16M      -0.079100
      2 C8           1.5300     0.0000     0.0000 c3         1 16M      -0.004300
      3 S7           2.1350     0.0000     1.7100 ss         1 16M      -0.261000
      4 C4           3.8850     0.0000     1.5110 ca         1 16M       0.042900
      5 C3           4.7130     0.0000     2.6280 ca         1 16M      -0.131500
      6 C5           4.4420    -0.0050     0.2380 ca         1 16M      -0.131500
      7 C6           5.8140    -0.0060     0.0860 ca         1 16M      -0.113000
      8 C1           6.6350     0.0000     1.2000 ca         1 16M      -0.137000
      9 C2           6.0850    -0.0000     2.4690 ca         1 16M      -0.113000
     10 H1          -0.3610    -0.8850     0.5110 hc         1 16M       0.047033
     11 H2          -0.3610     0.8840     0.5110 hc         1 16M       0.047033
     12 H3          -0.3610     0.0000    -1.0210 hc         1 16M       0.047033
     13 H4           1.8910    -0.8850    -0.5110 h1         1 16M       0.062700
     14 H5           1.8910     0.8850    -0.5110 h1         1 16M       0.062700
     15 H6           4.2830     0.0000     3.6220 ha         1 16M       0.135500
     16 H7           3.8000    -0.0100    -0.6350 ha         1 16M       0.135500
     17 H8           6.2490    -0.0080    -0.9060 ha         1 16M       0.131000
     18 H9           7.7110    -0.0000     1.0780 ha         1 16M       0.130000
     19 H10          6.7300     0.0020     3.3380 ha         1 16M       0.131000
@<TRIPOS>BOND
     1     8     9 ar
     2     8     7 ar
     3     9     5 ar
     4     7     6 ar
     5     5     4 ar
     6     6     4 ar
     7     4     3 1
     8     1     2 1
     9     3     2 1
    10     1    10 1
    11     1    11 1
    12     1    12 1
    13     2    13 1
    14     2    14 1
    15     5    15 1
    16     6    16 1
    17     7    17 1
    18     8    18 1
    19     9    19 1
@<TRIPOS>SUBSTRUCTURE
     1 16M         1 TEMP              0 ****  ****    0 ROOT
