@<TRIPOS>MOLECULE
16N
   19    20     1     0     0
SMALL
bcc


@<TRIPOS>ATOM
      1 C1         -0.0230   -0.0150   -0.0260 ca        1 16N     -0.119000
      2 C2          1.3760   -0.0920   -0.0070 ca        1 16N     -0.132000
      3 C6         -0.7030    0.0640    1.1780 ca        1 16N     -0.086300
      4 C7         -2.1740    0.1540    1.4130 c3        1 16N     -0.036100
      5 C8         -2.3400    0.2150    2.9390 c3        1 16N     -0.079400
      6 C9         -0.9360    0.1570    3.5590 c3        1 16N     -0.036100
      7 C5          0.0040    0.0660    2.4040 ca        1 16N     -0.086300
      8 C4          1.3870   -0.0110    2.4190 ca        1 16N     -0.119000
      9 C3          2.0710   -0.0910    1.1990 ca        1 16N     -0.132000
     10 H1         -0.5660   -0.0160   -0.9810 ha        1 16N      0.132000
     11 H2          1.9270   -0.1550   -0.9570 ha        1 16N      0.129000
     12 H3         -2.5990    1.0680    0.9260 hc        1 16N      0.053700
     13 H4         -2.7000   -0.7360    0.9870 hc        1 16N      0.053700
     14 H5         -2.8590    1.1590    3.2360 hc        1 16N      0.043700
     15 H6         -2.9600   -0.6420    3.2970 hc        1 16N      0.043700
     16 H7         -0.7290    1.0720    4.1700 hc        1 16N      0.053700
     17 H8         -0.8310   -0.7320    4.2300 hc        1 16N      0.053700
     18 H9          1.9410   -0.0100    3.3680 ha        1 16N      0.132000
     19 H10         3.1690   -0.1520    1.1980 ha        1 16N      0.129000
@<TRIPOS>BOND
     1    1    2 ar  
     2    1    3 ar  
     3    1   10 1   
     4    2    9 ar  
     5    2   11 1   
     6    3    4 1   
     7    3    7 ar  
     8    4    5 1   
     9    4   12 1   
    10    4   13 1   
    11    5    6 1   
    12    5   14 1   
    13    5   15 1   
    14    6    7 1   
    15    6   16 1   
    16    6   17 1   
    17    7    8 ar  
    18    8    9 ar  
    19    8   18 1   
    20    9   19 1   
@<TRIPOS>SUBSTRUCTURE
     1 16N         1 TEMP              0 ****  ****    0 ROOT
