@<TRIPOS>MOLECULE
molecule
   19    20     1     0     0
SMALL
bcc


@<TRIPOS>ATOM
      1 C1           0.0000     0.0000     0.0000 ca         1 16N      -0.115000
      2 C2           1.3810     0.0000     0.0000 ca         1 16N      -0.129000
      3 C6          -0.6980     0.0000     1.1960 ca         1 16N      -0.092800
      4 C7          -2.1880     0.0010     1.4630 c3         1 16N      -0.036100
      5 C8          -2.3340     0.4420     2.9350 c3         1 16N      -0.082400
      6 C9          -0.9880     0.0010     3.5480 c3         1 16N      -0.036100
      7 C5          -0.0080     0.0000     2.3940 ca         1 16N      -0.092800
      8 C4           1.3770     0.0000     2.3920 ca         1 16N      -0.115000
      9 C3           2.0710     0.0000     1.1980 ca         1 16N      -0.129000
     10 H1          -0.5400    -0.0000    -0.9390 ha         1 16N       0.127000
     11 H2           1.9240     0.0000    -0.9380 ha         1 16N       0.129000
     12 H3          -2.6850     0.7080     0.8100 hc         1 16N       0.053200
     13 H4          -2.5930    -0.9950     1.3280 hc         1 16N       0.053200
     14 H5          -3.1500    -0.0950     3.4050 hc         1 16N       0.051200
     15 H6          -2.4340     1.5190     2.9930 hc         1 16N       0.051200
     16 H7          -0.6730     0.7240     4.2910 hc         1 16N       0.053200
     17 H8          -1.0810    -1.0020     3.9470 hc         1 16N       0.053200
     18 H9           1.9180    -0.0000     3.3310 ha         1 16N       0.127000
     19 H10          3.1540     0.0000     1.2000 ha         1 16N       0.129000
@<TRIPOS>BOND
     1     1     2 ar  
     2     1     3 ar  
     3     2     9 ar  
     4     3     4 1   
     5     3     7 ar  
     6     4     5 1   
     7     9     8 ar  
     8     7     8 ar  
     9     7     6 1   
    10     5     6 1   
    11     1    10 1   
    12     2    11 1   
    13     4    12 1   
    14     4    13 1   
    15     5    14 1   
    16     5    15 1   
    17     6    16 1   
    18     6    17 1   
    19     8    18 1   
    20     9    19 1   
@<TRIPOS>SUBSTRUCTURE
     1 16N         1 TEMP              0 ****  ****    0 ROOT
