@<TRIPOS>MOLECULE
16N
   19    20     1     0     0
SMALL
bcc


@<TRIPOS>ATOM
      1 C1           0.0160     0.0360    -0.0460 ca         1 16N      -0.119000
      2 C2           1.4150    -0.0160    -0.0040 ca         1 16N      -0.132000
      3 C6          -0.6870     0.0640     1.1480 ca         1 16N      -0.086300
      4 C7          -2.1630     0.1190     1.3580 c3         1 16N      -0.036100
      5 C8          -2.3560     0.1300     2.8820 c3         1 16N      -0.079400
      6 C9          -0.9630     0.0800     3.5260 c3         1 16N      -0.036100
      7 C5          -0.0010     0.0420     2.3860 ca         1 16N      -0.086300
      8 C4           1.3830    -0.0090     2.4230 ca         1 16N      -0.119000
      9 C3           2.0900    -0.0380     1.2140 ca         1 16N      -0.132000
     10 H1          -0.5100     0.0530    -1.0110 ha         1 16N       0.132000
     11 H2           1.9840    -0.0390    -0.9450 ha         1 16N       0.129000
     12 H3          -2.6640    -0.7680     0.8960 hc         1 16N       0.053700
     13 H4          -2.5980     1.0390     0.8910 hc         1 16N       0.053700
     14 H5          -2.9650    -0.7500     3.2030 hc         1 16N       0.043700
     15 H6          -2.8980     1.0540     3.1980 hc         1 16N       0.043700
     16 H7          -0.8510    -0.8270     4.1710 hc         1 16N       0.053700
     17 H8          -0.7840     0.9800     4.1670 hc         1 16N       0.053700
     18 H9           1.9200    -0.0260     3.3810 ha         1 16N       0.132000
     19 H10          3.1880    -0.0780     1.2310 ha         1 16N       0.129000
@<TRIPOS>BOND
     1     1     2 ar  
     2     1     3 ar  
     3     1    10 1   
     4     2     9 ar  
     5     2    11 1   
     6     3     4 1   
     7     3     7 ar  
     8     4     5 1   
     9     4    12 1   
    10     4    13 1   
    11     5     6 1   
    12     5    14 1   
    13     5    15 1   
    14     6     7 1   
    15     6    16 1   
    16     6    17 1   
    17     7     8 ar  
    18     8     9 ar  
    19     8    18 1   
    20     9    19 1   
@<TRIPOS>SUBSTRUCTURE
     1 16N         1 TEMP              0 ****  ****    0 ROOT
