@<TRIPOS>MOLECULE
16N
   19    20     1     0     0
SMALL
bcc


@<TRIPOS>ATOM
      1 C1         -0.0220   -0.0180   -0.0260 ca        1 16N     -0.119000
      2 C2          1.3760   -0.1010   -0.0060 ca        1 16N     -0.132000
      3 C6         -0.7030    0.0640    1.1780 ca        1 16N     -0.086300
      4 C7         -2.1730    0.1600    1.4120 c3        1 16N     -0.036100
      5 C8         -2.3400    0.2240    2.9370 c3        1 16N     -0.079400
      6 C9         -0.9370    0.1610    3.5590 c3        1 16N     -0.036100
      7 C5          0.0030    0.0650    2.4050 ca        1 16N     -0.086300
      8 C4          1.3860   -0.0170    2.4210 ca        1 16N     -0.119000
      9 C3          2.0710   -0.1000    1.2010 ca        1 16N     -0.132000
     10 H1         -0.5650   -0.0190   -0.9810 ha        1 16N      0.132000
     11 H2          1.9280   -0.1670   -0.9550 ha        1 16N      0.129000
     12 H3         -2.7030   -0.7290    0.9870 hc        1 16N      0.053700
     13 H4         -2.5950    1.0740    0.9230 hc        1 16N      0.053700
     14 H5         -2.8550    1.1700    3.2330 hc        1 16N      0.043700
     15 H6         -2.9630   -0.6310    3.2960 hc        1 16N      0.043700
     16 H7         -0.8350   -0.7280    4.2310 hc        1 16N      0.053700
     17 H8         -0.7270    1.0760    4.1680 hc        1 16N      0.053700
     18 H9          1.9400   -0.0170    3.3700 ha        1 16N      0.132000
     19 H10         3.1690   -0.1660    1.2010 ha        1 16N      0.129000
@<TRIPOS>BOND
     1    1    2 ar  
     2    1    3 ar  
     3    1   10 1   
     4    2    9 ar  
     5    2   11 1   
     6    3    4 1   
     7    3    7 ar  
     8    4    5 1   
     9    4   12 1   
    10    4   13 1   
    11    5    6 1   
    12    5   14 1   
    13    5   15 1   
    14    6    7 1   
    15    6   16 1   
    16    6   17 1   
    17    7    8 ar  
    18    8    9 ar  
    19    8   18 1   
    20    9   19 1   
@<TRIPOS>SUBSTRUCTURE
     1 16N         1 TEMP              0 ****  ****    0 ROOT
