@<TRIPOS>MOLECULE
molecule
   42    43     1     0     0
SMALL
bcc


@<TRIPOS>ATOM
      1 C1           0.0000     0.0000     0.0000 c3         1 16O       0.308500
      2 N1          -0.4890     0.0580    -1.3800 ns         1 16O      -0.485900
      3 S1          -2.4750    -1.4970    -0.5480 s          1 16O      -0.667400
      4 Br1          1.2880     3.4650    -9.3920 br         1 16O      -0.084100
      5 C2           1.5310     0.0000     0.0000 c3         1 16O       0.096100
      6 N2          -2.0650    -0.5440    -2.9940 ns         1 16O      -0.293900
      7 O2           2.0080    -1.1680    -0.6710 oh         1 16O      -0.589800
      8 C3           2.0340     0.0000     1.4470 c3         1 16O       0.114100
      9 N3          -1.3610     0.1910    -3.9560 n2         1 16O      -0.490300
     10 O3           3.4610     0.0720     1.4560 oh         1 16O      -0.607800
     11 C4           1.4530     1.2150     2.1770 c3         1 16O       0.099100
     12 O4           1.8570     1.1860     3.5470 oh         1 16O      -0.598800
     13 C5          -0.0750     1.1680     2.0930 c3         1 16O       0.155100
     14 O5          -0.4750     1.1390     0.7210 os         1 16O      -0.411600
     15 C6          -0.6610     2.4100     2.7690 c3         1 16O       0.153400
     16 O6          -2.0860     2.3100     2.7950 oh         1 16O      -0.590800
     17 C7          -1.6150    -0.5970    -1.7240 cs         1 16O       0.648400
     18 C8          -1.7940     0.2420    -5.1780 ce         1 16O       0.423800
     19 C9          -1.0530     1.0170    -6.1910 ca         1 16O      -0.127900
     20 C10         -1.5160     1.0740    -7.5080 ca         1 16O      -0.096000
     21 C11         -0.8180     1.8000    -8.4500 ca         1 16O      -0.107500
     22 C12          0.3380     2.4720    -8.0930 ca         1 16O      -0.003900
     23 C13          0.8020     2.4200    -6.7900 ca         1 16O      -0.107500
     24 C14          0.1120     1.7020    -5.8360 ca         1 16O      -0.096000
     25 H1          -0.3590    -0.9030     0.4780 h2         1 16O       0.122700
     26 HN1          0.0100     0.5900    -2.0650 hn         1 16O       0.333500
     27 H2           1.8920     0.8870    -0.5070 h1         1 16O       0.049700
     28 HN2         -2.9020    -1.0300    -3.2490 hn         1 16O       0.352500
     29 HO2          2.7140    -0.9320    -1.2500 ho         1 16O       0.412000
     30 H3           1.7080    -0.9070     1.9410 h1         1 16O       0.069700
     31 HO3          3.8100    -0.6640     1.9320 ho         1 16O       0.418000
     32 H4           1.8120     2.1230     1.7080 h1         1 16O       0.053700
     33 HO4          2.5530     1.8070     3.6830 ho         1 16O       0.413000
     34 H5          -0.4360     0.2760     2.5920 h1         1 16O       0.076700
     35 H6          -0.3710     3.2930     2.2140 h1         1 16O       0.034200
     36 H6A         -0.2860     2.4800     3.7830 h1         1 16O       0.034200
     37 HO6         -2.4390     2.9950     3.3370 ho         1 16O       0.402000
     38 H8          -2.6990    -0.2840    -5.4540 h4         1 16O      -0.000200
     39 H10         -2.4210     0.5480    -7.7880 ha         1 16O       0.146000
     40 H11         -1.1760     1.8450    -9.4710 ha         1 16O       0.149500
     41 H13          1.7060     2.9510    -6.5160 ha         1 16O       0.149500
     42 H14          0.4770     1.6620    -4.8170 ha         1 16O       0.146000
@<TRIPOS>BOND
     1     5     1 1
     2     2     1 1
     3    14     1 1
     4     1    25 1
     5     2    17 1
     6     2    26 1
     7    17     3 2
     8     4    22 1
     9     5     8 1
    10     5     7 1
    11     5    27 1
    12     9     6 1
    13     6    17 1
    14     6    28 1
    15     7    29 1
    16    10     8 1
    17    11     8 1
    18     8    30 1
    19    18     9 2
    20    10    31 1
    21    11    12 1
    22    11    13 1
    23    11    32 1
    24    12    33 1
    25    14    13 1
    26    15    13 1
    27    13    34 1
    28    16    15 1
    29    15    35 1
    30    15    36 1
    31    16    37 1
    32    19    18 1
    33    18    38 1
    34    24    19 ar
    35    20    19 ar
    36    21    20 ar
    37    20    39 1
    38    22    21 ar
    39    21    40 1
    40    22    23 ar
    41    23    24 ar
    42    23    41 1
    43    24    42 1
@<TRIPOS>SUBSTRUCTURE
     1 16O         1 TEMP              0 ****  ****    0 ROOT
