@<TRIPOS>MOLECULE
16O
   42    44     1     0     0
SMALL
bcc


@<TRIPOS>ATOM
      1 C1           0.0000     0.0000     0.0000 c3         1 16O       0.025000
      2 N1          -0.4890     0.0580    -1.3800 ns         1 16O       0.178000
      3 S1          -2.4750    -1.4970    -0.5480 s          1 16O      -0.384000
      4 Br1          1.2880     3.4650    -9.3920 br         1 16O       0.034000
      5 C2           1.5310     0.0000     0.0000 c3         1 16O       0.022000
      6 N2          -2.0650    -0.5440    -2.9940 ns         1 16O       0.208000
      7 O2           2.0080    -1.1680    -0.6710 oh         1 16O      -0.299000
      8 C3           2.0340     0.0000     1.4470 c3         1 16O       0.040000
      9 N3          -1.3610     0.1910    -3.9560 n2         1 16O      -0.086000
     10 O3           3.4610     0.0720     1.4560 oh         1 16O      -0.317000
     11 C4           1.4530     1.2150     2.1770 c3         1 16O       0.026000
     12 O4           1.8570     1.1860     3.5470 oh         1 16O      -0.305000
     13 C5          -0.0750     1.1680     2.0930 c3         1 16O       0.062000
     14 O5          -0.4750     1.1390     0.7210 os         1 16O      -0.246000
     15 C6          -0.6610     2.4100     2.7690 c3         1 16O       0.074000
     16 O6          -2.0860     2.3100     2.7950 oh         1 16O      -0.301000
     17 C7          -1.6150    -0.5970    -1.7240 c2         1 16O      -0.127000
     18 C8          -1.7940     0.2420    -5.1780 c2         1 16O      -0.404000
     19 C9          -1.0530     1.0170    -6.1910 c3         1 16O      -0.139000
     20 C10         -1.5160     1.0740    -7.5080 c2         1 16O      -0.045500
     21 C11         -0.8180     1.8000    -8.4500 c2         1 16O      -0.100000
     22 C12          0.3380     2.4720    -8.0930 c2         1 16O      -0.074000
     23 C13          0.8020     2.4200    -6.7900 c2         1 16O      -0.100000
     24 C14          0.1120     1.7020    -5.8360 c2         1 16O      -0.045500
     25 H1          -0.3590    -0.9030     0.4780 h2         1 16O       0.142000
     26 HN1          0.0040     0.5990    -2.0630 hn         1 16O       0.085000
     27 H2           1.8920     0.8870    -0.5070 h1         1 16O       0.055000
     28 HN2         -2.8930    -1.0430    -3.2520 hn         1 16O       0.125000
     29 HO2          2.7140    -0.9320    -1.2500 ho         1 16O       0.198000
     30 H3           1.7080    -0.9070     1.9410 h1         1 16O       0.074000
     31 HO3          3.8100    -0.6640     1.9320 ho         1 16O       0.204000
     32 H4           1.8120     2.1230     1.7080 h1         1 16O       0.058000
     33 HO4          2.5530     1.8070     3.6830 ho         1 16O       0.198000
     34 H5          -0.4360     0.2760     2.5920 h1         1 16O       0.083000
     35 H6          -0.3710     3.2940     2.2140 h1         1 16O       0.035500
     36 H6A         -0.2860     2.4800     3.7830 h1         1 16O       0.035500
     37 HO6         -2.4390     2.9940     3.3390 ho         1 16O       0.186000
     38 H8          -1.8330     1.3210    -5.2730 DU         1 16O       0.324000
     39 H10         -2.4210     0.5480    -7.7880 ha         1 16O       0.125500
     40 H11         -1.1760     1.8450    -9.4710 ha         1 16O       0.124500
     41 H13          1.7060     2.9510    -6.5160 ha         1 16O       0.124500
     42 H14          0.4770     1.6620    -4.8170 ha         1 16O       0.125500
@<TRIPOS>BOND
     1     1     2 1   
     2     1     5 1   
     3     1    14 1   
     4     1    25 1   
     5     2    17 1   
     6     2    26 1   
     7     3    17 1   
     8     4    22 1   
     9     5     7 1   
    10     5     8 1   
    11     5    27 1   
    12     6     9 1   
    13     6    17 1   
    14     6    28 1   
    15     7    29 1   
    16     8    10 1   
    17     8    11 1   
    18     8    30 1   
    19     9    18 1   
    20    10    31 1   
    21    11    12 1   
    22    11    13 1   
    23    11    32 1   
    24    12    33 1   
    25    13    14 1   
    26    13    15 1   
    27    13    34 1   
    28    15    16 1   
    29    15    35 1   
    30    15    36 1   
    31    16    37 1   
    32    18    19 1   
    33    18    38 1   
    34    19    20 1   
    35    19    24 1   
    36    19    38 1   
    37    20    21 1   
    38    20    39 1   
    39    21    22 1   
    40    21    40 1   
    41    22    23 1   
    42    23    24 1   
    43    23    41 1   
    44    24    42 1   
@<TRIPOS>SUBSTRUCTURE
     1 16O         1 TEMP              0 ****  ****    0 ROOT
