@<TRIPOS>MOLECULE
16P
   50    49     1     0     0
SMALL
bcc


@<TRIPOS>ATOM
      1 C1         -0.4380    2.5430    0.0690 c3        1 16P     -0.097100
      2 C2         -0.2320    1.0470    0.0800 c3        1 16P      0.131400
      3 O1          1.1360    0.8190    0.4140 os        1 16P     -0.428600
      4 C3          1.4630   -0.5680    0.4390 c3        1 16P      0.126400
      5 C4          2.8930   -0.6660    0.9600 c3        1 16P      0.127400
      6 O2          2.8130   -1.2770    2.2460 os        1 16P     -0.429600
      7 C5          4.0700   -1.2810    2.9210 c3        1 16P      0.127400
      8 C6          3.8790   -2.1070    4.1880 c3        1 16P      0.127400
      9 O3          4.5610   -3.3410    3.9740 os        1 16P     -0.429600
     10 C7          4.3290   -4.2760    5.0250 c3        1 16P      0.127400
     11 C8          5.2480   -5.4640    4.7600 c3        1 16P      0.127400
     12 O4          6.2870   -5.3990    5.7350 os        1 16P     -0.429600
     13 C9          7.3090   -6.3650    5.5000 c3        1 16P      0.127400
     14 C10         8.2490   -6.3020    6.7000 c3        1 16P      0.127400
     15 O5          8.0110   -7.4830    7.4630 os        1 16P     -0.429600
     16 C11         8.7150   -7.4760    8.7030 c3        1 16P      0.127400
     17 C12         8.5170   -8.8570    9.3200 c3        1 16P      0.126400
     18 O6          9.7890   -9.4990    9.2890 os        1 16P     -0.428600
     19 C13         9.7180  -10.8610    9.7090 c3        1 16P      0.131400
     20 C14        11.1230  -11.4120    9.6490 c3        1 16P     -0.097100
     21 H11        -0.2000    2.9760    1.0700 hc        1 16P      0.045033
     22 H12        -1.5000    2.7680   -0.1850 hc        1 16P      0.045033
     23 H13         0.2300    3.0230   -0.6870 hc        1 16P      0.045033
     24 H21        -0.4490    0.6010   -0.9280 h1        1 16P      0.024700
     25 H22        -0.8910    0.5540    0.8440 h1        1 16P      0.024700
     26 H31         0.7560   -1.1230    1.1100 h1        1 16P      0.041700
     27 H32         1.3950   -0.9820   -0.6020 h1        1 16P      0.041700
     28 H41         3.3580    0.3520    1.0410 h1        1 16P      0.043200
     29 H42         3.5150   -1.3120    0.2850 h1        1 16P      0.043200
     30 H51         4.8610   -1.7330    2.2660 h1        1 16P      0.043200
     31 H52         4.3520   -0.2260    3.1800 h1        1 16P      0.043200
     32 H61         4.3340   -1.5830    5.0690 h1        1 16P      0.043200
     33 H62         2.7890   -2.2950    4.3810 h1        1 16P      0.043200
     34 H71         3.2550   -4.5990    5.0000 h1        1 16P      0.043700
     35 H72         4.5600   -3.8080    6.0190 h1        1 16P      0.043700
     36 H81         4.6880   -6.4280    4.8830 h1        1 16P      0.043700
     37 H82         5.6820   -5.4090    3.7260 h1        1 16P      0.043700
     38 H91         6.8610   -7.3880    5.3980 h1        1 16P      0.043200
     39 H92         7.8590   -6.0980    4.5590 h1        1 16P      0.043200
     40 H101        9.3180   -6.2930    6.3600 h1        1 16P      0.043200
     41 H102        8.0420   -5.3900    7.3210 h1        1 16P      0.043200
     42 H111        9.8050   -7.2690    8.5300 h1        1 16P      0.043200
     43 H112        8.2820   -6.6820    9.3670 h1        1 16P      0.043200
     44 H121        8.1760   -8.7660   10.3850 h1        1 16P      0.041700
     45 H122        7.7660   -9.4510    8.7340 h1        1 16P      0.041700
     46 H131        9.0310  -11.4280    9.0240 h1        1 16P      0.024700
     47 H132        9.3090  -10.9090   10.7540 h1        1 16P      0.024700
     48 H141       11.5240  -11.3420    8.6100 hc        1 16P      0.045033
     49 H142       11.1140  -12.4820    9.9670 hc        1 16P      0.045033
     50 H143       11.7970  -10.8340   10.3250 hc        1 16P      0.045033
@<TRIPOS>BOND
     1    1    2 1   
     2    1   21 1   
     3    1   22 1   
     4    1   23 1   
     5    2    3 1   
     6    2   24 1   
     7    2   25 1   
     8    3    4 1   
     9    4    5 1   
    10    4   26 1   
    11    4   27 1   
    12    5    6 1   
    13    5   28 1   
    14    5   29 1   
    15    6    7 1   
    16    7    8 1   
    17    7   30 1   
    18    7   31 1   
    19    8    9 1   
    20    8   32 1   
    21    8   33 1   
    22    9   10 1   
    23   10   11 1   
    24   10   34 1   
    25   10   35 1   
    26   11   12 1   
    27   11   36 1   
    28   11   37 1   
    29   12   13 1   
    30   13   14 1   
    31   13   38 1   
    32   13   39 1   
    33   14   15 1   
    34   14   40 1   
    35   14   41 1   
    36   15   16 1   
    37   16   17 1   
    38   16   42 1   
    39   16   43 1   
    40   17   18 1   
    41   17   44 1   
    42   17   45 1   
    43   18   19 1   
    44   19   20 1   
    45   19   46 1   
    46   19   47 1   
    47   20   48 1   
    48   20   49 1   
    49   20   50 1   
@<TRIPOS>SUBSTRUCTURE
     1 16P         1 TEMP              0 ****  ****    0 ROOT
