@<TRIPOS>MOLECULE
16P
   50    49     1     0     0
SMALL
bcc


@<TRIPOS>ATOM
      1 C1           1.9810    -2.3640    -3.7590 c3         1 16P      -0.097100
      2 C2           2.8770    -1.2790    -3.2090 c3         1 16P       0.131400
      3 O1           2.6430    -1.2250    -1.8020 os         1 16P      -0.430600
      4 C3           3.4410    -0.2300    -1.1660 c3         1 16P       0.110400
      5 C4           3.0710    -0.2840     0.3130 c3         1 16P       0.129400
      6 O2           3.9320     0.6480     0.9630 os         1 16P      -0.429100
      7 C5           3.7020     0.6980     2.3700 c3         1 16P       0.124400
      8 C6           4.5720     1.8290     2.9080 c3         1 16P       0.126900
      9 O3           3.6830     2.8790     3.2840 os         1 16P      -0.428600
     10 C7           4.3780     4.0690     3.6530 c3         1 16P       0.126900
     11 C8           3.3280     5.0310     4.2000 c3         1 16P       0.126900
     12 O4           3.5570     5.1250     5.6040 os         1 16P      -0.428600
     13 C9           2.5340     5.8640     6.2690 c3         1 16P       0.126900
     14 C10          2.9880     6.0390     7.7130 c3         1 16P       0.124400
     15 O5           3.4660     7.3800     7.8300 os         1 16P      -0.429100
     16 C11          4.1500     7.6290     9.0480 c3         1 16P       0.129400
     17 C12          5.5400     7.0000     9.0590 c3         1 16P       0.110400
     18 O6           5.4190     5.7390     9.7130 os         1 16P      -0.430600
     19 C13          6.6550     5.0260     9.7500 c3         1 16P       0.131400
     20 C14          6.3890     3.7240    10.4670 c3         1 16P      -0.097100
     21 H11          2.1300    -2.4420    -4.8620 hc         1 16P       0.045200
     22 H12          2.2220    -3.3450    -3.2860 hc         1 16P       0.045200
     23 H13          0.9100    -2.1280    -3.5490 hc         1 16P       0.045200
     24 H21          2.6340    -0.2820    -3.6670 h1         1 16P       0.025700
     25 H22          3.9590    -1.5120    -3.4000 h1         1 16P       0.025700
     26 H31          4.5300    -0.4570    -1.3110 h1         1 16P       0.039450
     27 H32          3.2130     0.7810    -1.5950 h1         1 16P       0.039450
     28 H41          3.2370    -1.3140     0.7260 h1         1 16P       0.049950
     29 H42          2.0000     0.0080     0.4660 h1         1 16P       0.049950
     30 H51          4.0030    -0.2810     2.8270 h1         1 16P       0.048950
     31 H52          2.6170     0.8950     2.5790 h1         1 16P       0.048950
     32 H61          5.2890     2.1890     2.1230 h1         1 16P       0.042450
     33 H62          5.1420     1.4890     3.8120 h1         1 16P       0.042450
     34 H71          4.8720     4.5030     2.7440 h1         1 16P       0.043450
     35 H72          5.1530     3.8410     4.4320 h1         1 16P       0.043450
     36 H81          2.2920     4.6460     3.9990 h1         1 16P       0.043450
     37 H82          3.4480     6.0460     3.7380 h1         1 16P       0.043450
     38 H91          1.5760     5.2810     6.2300 h1         1 16P       0.042450
     39 H92          2.3900     6.8600     5.7720 h1         1 16P       0.042450
     40 H101         2.1210     5.9030     8.4120 h1         1 16P       0.048950
     41 H102         3.8030     5.3120     7.9740 h1         1 16P       0.048950
     42 H111         4.2410     8.7480     9.0780 h1         1 16P       0.049950
     43 H112         3.5490     7.2640     9.9220 h1         1 16P       0.049950
     44 H121         6.2560     7.6480     9.6300 h1         1 16P       0.039450
     45 H122         5.9180     6.8550     8.0120 h1         1 16P       0.039450
     46 H131         7.0130     4.8450     8.7010 h1         1 16P       0.025700
     47 H132         7.4230     5.6390    10.2940 h1         1 16P       0.025700
     48 H141         5.6150     3.1310     9.9230 hc         1 16P       0.045200
     49 H142         6.0190     3.9170    11.5020 hc         1 16P       0.045200
     50 H143         7.3340     3.1320    10.5200 hc         1 16P       0.045200
@<TRIPOS>BOND
     1     1     2 1   
     2     1    21 1   
     3     1    22 1   
     4     1    23 1   
     5     2     3 1   
     6     2    24 1   
     7     2    25 1   
     8     3     4 1   
     9     4     5 1   
    10     4    26 1   
    11     4    27 1   
    12     5     6 1   
    13     5    28 1   
    14     5    29 1   
    15     6     7 1   
    16     7     8 1   
    17     7    30 1   
    18     7    31 1   
    19     8     9 1   
    20     8    32 1   
    21     8    33 1   
    22     9    10 1   
    23    10    11 1   
    24    10    34 1   
    25    10    35 1   
    26    11    12 1   
    27    11    36 1   
    28    11    37 1   
    29    12    13 1   
    30    13    14 1   
    31    13    38 1   
    32    13    39 1   
    33    14    15 1   
    34    14    40 1   
    35    14    41 1   
    36    15    16 1   
    37    16    17 1   
    38    16    42 1   
    39    16    43 1   
    40    17    18 1   
    41    17    44 1   
    42    17    45 1   
    43    18    19 1   
    44    19    20 1   
    45    19    46 1   
    46    19    47 1   
    47    20    48 1   
    48    20    49 1   
    49    20    50 1   
@<TRIPOS>SUBSTRUCTURE
     1 16P         1 TEMP              0 ****  ****    0 ROOT
