@<TRIPOS>MOLECULE
molecule
   50    49     1     0     0
SMALL
bcc


@<TRIPOS>ATOM
      1 C1           0.0000     0.0000     0.0000 c3         1 16P      -0.090100
      2 C2           1.5290     0.0000     0.0000 c3         1 16P       0.136400
      3 O1           2.0060     0.0000     1.3480 os         1 16P      -0.421600
      4 C3           3.4310    -0.0000     1.4600 c3         1 16P       0.142400
      5 C4           3.8250     0.0000     2.9380 c3         1 16P       0.141400
      6 O2           3.3970    -1.2200     3.5460 os         1 16P      -0.409100
      7 C5           3.7180    -1.3230     4.9340 c3         1 16P       0.141900
      8 C6           3.2170    -2.6630     5.4760 c3         1 16P       0.142400
      9 O3           3.9270    -3.7290     4.8450 os         1 16P      -0.410600
     10 C7           3.5330    -5.0300     5.2830 c3         1 16P       0.141900
     11 C8           4.3550    -6.0890     4.5440 c3         1 16P       0.141900
     12 O4           5.7310    -5.9660     4.9130 os         1 16P      -0.410600
     13 C9           6.5890    -6.9130     4.2760 c3         1 16P       0.142400
     14 C10          8.0300    -6.6910     4.7420 c3         1 16P       0.141900
     15 O5           8.1270    -6.9730     6.1390 os         1 16P      -0.409100
     16 C11          9.4370    -6.7960     6.6790 c3         1 16P       0.141400
     17 C12          9.4240    -7.1240     8.1730 c3         1 16P       0.142400
     18 O6           9.1250    -8.5100     8.3530 os         1 16P      -0.421600
     19 C13          9.0880    -8.9240     9.7210 c3         1 16P       0.136400
     20 C14          8.7610   -10.4170     9.7930 c3         1 16P      -0.090100
     21 H11         -0.3610     0.0240    -1.0210 hc         1 16P       0.043533
     22 H12         -0.3610    -0.8960     0.4900 hc         1 16P       0.043533
     23 H13         -0.3610     0.8720     0.5320 hc         1 16P       0.043533
     24 H21          1.8900    -0.8840    -0.5110 h1         1 16P       0.019700
     25 H22          1.8900     0.8840    -0.5110 h1         1 16P       0.019700
     26 H31          3.8310     0.8840     0.9790 h1         1 16P       0.031700
     27 H32          3.8310    -0.8850     0.9790 h1         1 16P       0.031700
     28 H41          4.9010     0.0890     3.0250 h1         1 16P       0.030450
     29 H42          3.3520     0.8370     3.4380 h1         1 16P       0.030450
     30 H51          4.7920    -1.2600     5.0620 h1         1 16P       0.031200
     31 H52          3.2430    -0.5140     5.4750 h1         1 16P       0.031200
     32 H61          2.1580    -2.7620     5.2700 h1         1 16P       0.031700
     33 H62          3.3820    -2.7030     6.5460 h1         1 16P       0.031700
     34 H71          3.7050    -5.1200     6.3490 h1         1 16P       0.032200
     35 H72          2.4810    -5.1790     5.0720 h1         1 16P       0.032200
     36 H81          4.2540    -5.9440     3.4750 h1         1 16P       0.032200
     37 H82          3.9960    -7.0760     4.8100 h1         1 16P       0.032200
     38 H91          6.2760    -7.9170     4.5360 h1         1 16P       0.031700
     39 H92          6.5330    -6.7850     3.2010 h1         1 16P       0.031700
     40 H101         8.3130    -5.6620     4.5610 h1         1 16P       0.031200
     41 H102         8.6920    -7.3500     4.1940 h1         1 16P       0.031200
     42 H111        10.1300    -7.4560     6.1710 h1         1 16P       0.030450
     43 H112         9.7500    -5.7680     6.5380 h1         1 16P       0.030450
     44 H121         8.6690    -6.5250     8.6680 h1         1 16P       0.031700
     45 H122        10.3950    -6.9050     8.6000 h1         1 16P       0.031700
     46 H131         8.3260    -8.3610    10.2470 h1         1 16P       0.019700
     47 H132        10.0520    -8.7420    10.1800 h1         1 16P       0.019700
     48 H141         8.7560   -10.7360    10.8280 hc         1 16P       0.043533
     49 H142         9.5100   -10.9770     9.2460 hc         1 16P       0.043533
     50 H143         7.7860   -10.5950     9.3560 hc         1 16P       0.043533
@<TRIPOS>BOND
     1     1     2 1
     2     1    21 1
     3     1    22 1
     4     1    23 1
     5     2     3 1
     6     2    24 1
     7     2    25 1
     8     3     4 1
     9     4     5 1
    10     4    26 1
    11     4    27 1
    12     5     6 1
    13     5    28 1
    14     5    29 1
    15     6     7 1
    16     7     8 1
    17     7    30 1
    18     7    31 1
    19     8     9 1
    20     8    32 1
    21     8    33 1
    22     9    10 1
    23    10    11 1
    24    10    34 1
    25    10    35 1
    26    11    12 1
    27    11    36 1
    28    11    37 1
    29    12    13 1
    30    13    14 1
    31    13    38 1
    32    13    39 1
    33    14    15 1
    34    14    40 1
    35    14    41 1
    36    15    16 1
    37    16    17 1
    38    16    42 1
    39    16    43 1
    40    17    18 1
    41    17    44 1
    42    17    45 1
    43    18    19 1
    44    19    20 1
    45    19    46 1
    46    19    47 1
    47    20    48 1
    48    20    49 1
    49    20    50 1
@<TRIPOS>SUBSTRUCTURE
     1 16P         1 TEMP              0 ****  ****    0 ROOT
