@<TRIPOS>MOLECULE
16Q
   19    19     1     0     0
SMALL
bcc


@<TRIPOS>ATOM
      1 C9           1.2630     0.7600    -0.4840 c3         1 16Q      -0.131100
      2 C8           1.6170    -0.4200     0.3890 c3         1 16Q       0.128400
      3 O7           0.5450    -0.7810     1.2610 os         1 16Q      -0.331900
      4 C1           0.3230     0.0140     2.3690 ca         1 16Q       0.128100
      5 C2           1.1300     1.0860     2.7680 ca         1 16Q      -0.181500
      6 C6          -0.8080    -0.3520     3.1250 ca         1 16Q      -0.181500
      7 C5          -1.1140     0.3630     4.2770 ca         1 16Q      -0.098000
      8 C4          -0.3130     1.4330     4.6820 ca         1 16Q      -0.166000
      9 C3           0.8020     1.7890     3.9280 ca         1 16Q      -0.098000
     10 H1           2.0990     0.9640    -1.1950 hc         1 16Q       0.048367
     11 H2           0.3360     0.5460    -1.0680 hc         1 16Q       0.048367
     12 H3           1.0830     1.6720     0.1350 hc         1 16Q       0.048367
     13 H4           1.7440    -1.3510    -0.2310 h1         1 16Q       0.054200
     14 H5           2.5560    -0.2360     0.9720 h1         1 16Q       0.054200
     15 H6           2.0110     1.3830     2.1830 ha         1 16Q       0.142000
     16 H7          -1.4280    -1.1960     2.7950 ha         1 16Q       0.142000
     17 H8          -1.9950     0.0820     4.8730 ha         1 16Q       0.131000
     18 H9          -0.5630     1.9930     5.5940 ha         1 16Q       0.132000
     19 H10          1.4350     2.6320     4.2440 ha         1 16Q       0.131000
@<TRIPOS>BOND
     1     1     2 1   
     2     1    10 1   
     3     1    11 1   
     4     1    12 1   
     5     2     3 1   
     6     2    13 1   
     7     2    14 1   
     8     3     4 1   
     9     4     5 ar  
    10     4     6 ar  
    11     5     9 ar  
    12     5    15 1   
    13     6     7 ar  
    14     6    16 1   
    15     7     8 ar  
    16     7    17 1   
    17     8     9 ar  
    18     8    18 1   
    19     9    19 1   
@<TRIPOS>SUBSTRUCTURE
     1 16Q         1 TEMP              0 ****  ****    0 ROOT
