@<TRIPOS>MOLECULE
16Q
   19    19     1     0     0
SMALL
bcc


@<TRIPOS>ATOM
      1 C9         -0.0130   -0.0010    0.0880 c3        1 16Q     -0.100100
      2 C8          1.4940    0.0010   -0.0390 c3        1 16Q      0.128400
      3 O7          2.0020    0.0010    1.3010 os        1 16Q     -0.332900
      4 C1          3.3770    0.0020    1.4260 ca        1 16Q      0.128100
      5 C2          4.2760    0.0050    0.3530 ca        1 16Q     -0.182000
      6 C6          3.8450   -0.0010    2.7550 ca        1 16Q     -0.182000
      7 C5          5.2140   -0.0000    2.9910 ca        1 16Q     -0.097000
      8 C4          6.1180    0.0030    1.9250 ca        1 16Q     -0.166000
      9 C3          5.6470    0.0050    0.6150 ca        1 16Q     -0.097000
     10 H1         -0.3590    0.9020    0.6430 hc        1 16Q      0.048700
     11 H2         -0.3560   -0.9070    0.6410 hc        1 16Q      0.048700
     12 H3         -0.4650   -0.0010   -0.9320 hc        1 16Q      0.048700
     13 H4          1.8570   -0.9140   -0.5760 h1        1 16Q      0.037700
     14 H5          1.8540    0.9190   -0.5740 h1        1 16Q      0.037700
     15 H6          3.9210    0.0070   -0.6860 ha        1 16Q      0.141500
     16 H7          3.1210   -0.0040    3.5820 ha        1 16Q      0.141500
     17 H8          5.5870   -0.0020    4.0260 ha        1 16Q      0.131500
     18 H9          7.1990    0.0030    2.1230 ha        1 16Q      0.132000
     19 H10         6.3570    0.0080   -0.2250 ha        1 16Q      0.131500
@<TRIPOS>BOND
     1    1    2 1   
     2    1   10 1   
     3    1   11 1   
     4    1   12 1   
     5    2    3 1   
     6    2   13 1   
     7    2   14 1   
     8    3    4 1   
     9    4    5 ar  
    10    4    6 ar  
    11    5    9 ar  
    12    5   15 1   
    13    6    7 ar  
    14    6   16 1   
    15    7    8 ar  
    16    7   17 1   
    17    8    9 ar  
    18    8   18 1   
    19    9   19 1   
@<TRIPOS>SUBSTRUCTURE
     1 16Q         1 TEMP              0 ****  ****    0 ROOT
