@<TRIPOS>MOLECULE
molecule
   19    19     1     0     0
SMALL
bcc


@<TRIPOS>ATOM
      1 C9           0.0000     0.0000     0.0000 c3         1 16Q      -0.093100
      2 C8           1.5300     0.0000     0.0000 c3         1 16Q       0.136400
      3 O7           2.0060     0.0000     1.3470 os         1 16Q      -0.331900
      4 C1           3.3530    -0.0010     1.5260 ca         1 16Q       0.144100
      5 C2           4.2000     0.0060     0.4270 ca         1 16Q      -0.191000
      6 C6           3.8850    -0.0010     2.8080 ca         1 16Q      -0.191000
      7 C5           5.2550    -0.0010     2.9860 ca         1 16Q      -0.091500
      8 C4           6.0960    -0.0000     1.8890 ca         1 16Q      -0.169000
      9 C3           5.5690     0.0070     0.6110 ca         1 16Q      -0.091500
     10 H1          -0.3610     0.0000    -1.0210 hc         1 16Q       0.047700
     11 H2          -0.3610    -0.8850     0.5110 hc         1 16Q       0.047700
     12 H3          -0.3610     0.8840     0.5110 hc         1 16Q       0.047700
     13 H4           1.8910     0.8850    -0.5110 h1         1 16Q       0.034200
     14 H5           1.8910    -0.8850    -0.5110 h1         1 16Q       0.034200
     15 H6           3.7880     0.0120    -0.5750 ha         1 16Q       0.137500
     16 H7           3.2270    -0.0020     3.6680 ha         1 16Q       0.137500
     17 H8           5.6710    -0.0040     3.9860 ha         1 16Q       0.130500
     18 H9           7.1700     0.0000     2.0310 ha         1 16Q       0.129000
     19 H10          6.2300     0.0100    -0.2470 ha         1 16Q       0.130500
@<TRIPOS>BOND
     1     9     5 ar
     2     9     8 ar
     3     5     4 ar
     4     8     7 ar
     5     4     3 1
     6     4     6 ar
     7     3     2 1
     8     7     6 ar
     9     2     1 1
    10     1    10 1
    11     1    11 1
    12     1    12 1
    13     2    13 1
    14     2    14 1
    15     5    15 1
    16     6    16 1
    17     7    17 1
    18     8    18 1
    19     9    19 1
@<TRIPOS>SUBSTRUCTURE
     1 16Q         1 TEMP              0 ****  ****    0 ROOT
