@<TRIPOS>MOLECULE
16R
   16    16     1     0     0
SMALL
bcc


@<TRIPOS>ATOM
      1 C8           0.0500     0.0210    -0.0300 c3         1 16R      -0.068000
      2 S7           1.7960    -0.0850    -0.0110 ss         1 16R      -0.171000
      3 C4           2.2490    -0.0290     1.6210 ca         1 16R      -0.002100
      4 C3           1.3710     0.0800     2.7030 ca         1 16R      -0.133000
      5 C5           3.6290    -0.1010     1.8670 ca         1 16R      -0.133000
      6 C6           4.1150    -0.0640     3.1690 ca         1 16R      -0.113500
      7 C1           3.2320     0.0450     4.2450 ca         1 16R      -0.140000
      8 C2           1.8610     0.1170     4.0080 ca         1 16R      -0.113500
      9 H1          -0.3250     0.9720     0.4090 h1         1 16R       0.069033
     10 H2          -0.2350    -0.0170    -1.1080 h1         1 16R       0.069033
     11 H3          -0.4350    -0.8290     0.5010 h1         1 16R       0.069033
     12 H4           0.2850     0.1380     2.5320 ha         1 16R       0.135500
     13 H5           4.3270    -0.1870     1.0190 ha         1 16R       0.135500
     14 H6           5.1980    -0.1210     3.3510 ha         1 16R       0.132000
     15 H7           3.6170     0.0740     5.2740 ha         1 16R       0.132000
     16 H8           1.1590     0.2020     4.8510 ha         1 16R       0.132000
@<TRIPOS>BOND
     1     1     2 1   
     2     1     9 1   
     3     1    10 1   
     4     1    11 1   
     5     2     3 1   
     6     3     4 ar  
     7     3     5 ar  
     8     4     8 ar  
     9     4    12 1   
    10     5     6 ar  
    11     5    13 1   
    12     6     7 ar  
    13     6    14 1   
    14     7     8 ar  
    15     7    15 1   
    16     8    16 1   
@<TRIPOS>SUBSTRUCTURE
     1 16R         1 TEMP              0 ****  ****    0 ROOT
