@<TRIPOS>MOLECULE
molecule
   16    16     1     0     0
SMALL
bcc


@<TRIPOS>ATOM
      1 C8           0.0000     0.0000     0.0000 c3         1 16R      -0.018000
      2 S7           1.8150     0.0000     0.0000 ss         1 16R      -0.259000
      3 C4           2.2110     0.0000     1.7170 ca         1 16R       0.041900
      4 C3           3.5390     0.0000     2.1250 ca         1 16R      -0.130500
      5 C5           1.1960     0.0060     2.6660 ca         1 16R      -0.130500
      6 C6           1.5110     0.0070     4.0100 ca         1 16R      -0.113000
      7 C1           2.8340     0.0010     4.4130 ca         1 16R      -0.137000
      8 C2           3.8460     0.0010     3.4710 ca         1 16R      -0.113000
      9 H1          -0.3610     0.8860     0.5080 h1         1 16R       0.065033
     10 H2          -0.3610    -0.0030    -1.0210 h1         1 16R       0.065033
     11 H3          -0.3610    -0.8830     0.5140 h1         1 16R       0.065033
     12 H4           4.3330     0.0000     1.3880 ha         1 16R       0.135500
     13 H5           0.1590     0.0110     2.3520 ha         1 16R       0.135500
     14 H6           0.7200     0.0090     4.7510 ha         1 16R       0.131000
     15 H7           3.0770     0.0020     5.4690 ha         1 16R       0.130000
     16 H8           4.8820    -0.0010     3.7890 ha         1 16R       0.131000
@<TRIPOS>BOND
     1     6     5 ar
     2     6     7 ar
     3     5     3 ar
     4     7     8 ar
     5     3     2 1
     6     3     4 ar
     7     2     1 1
     8     8     4 ar
     9     1     9 1
    10     1    10 1
    11     1    11 1
    12     4    12 1
    13     5    13 1
    14     6    14 1
    15     7    15 1
    16     8    16 1
@<TRIPOS>SUBSTRUCTURE
     1 16R         1 TEMP              0 ****  ****    0 ROOT
