@<TRIPOS>MOLECULE
16S
   29    31     1     0     0
SMALL
bcc


@<TRIPOS>ATOM
      1 CAM          0.0250    -0.1850     0.0150 ca         1 16S      -0.156000
      2 CAL          1.4190    -0.1850    -0.0200 ca         1 16S       0.097100
      3 OAR          2.1430    -0.3610    -1.1750 oh         1 16S      -0.471100
      4 CAP          2.1570     0.0030     1.1760 ca         1 16S       0.126100
      5 OAS          3.5250    -0.0040     1.0730 oh         1 16S      -0.468100
      6 CAO          1.4780     0.1830     2.3860 ca         1 16S      -0.196000
      7 CAN          0.0850     0.1790     2.4130 ca         1 16S      -0.079000
      8 CAK         -0.6460     0.0030     1.2340 ca         1 16S      -0.076800
      9 CAJ         -2.1090     0.0180     1.2550 cc         1 16S       0.201900
     10 OAG         -2.6000    -0.4180     2.4780 os         1 16S      -0.225200
     11 CAF         -3.9780    -0.4440     2.6310 ca         1 16S       0.142100
     12 CAA         -4.4330    -0.8880     3.8860 ca         1 16S      -0.159000
     13 CAB         -5.8010    -0.9440     4.1160 ca         1 16S      -0.078000
     14 CAC         -6.7100    -0.5660     3.1190 ca         1 16S      -0.165000
     15 CAD         -6.2510    -0.1290     1.8830 ca         1 16S      -0.046000
     16 CAE         -4.8740    -0.0610     1.6210 ca         1 16S      -0.214600
     17 CAH         -4.3600     0.3980     0.3220 c          1 16S       0.590900
     18 OAQ         -5.0950     0.7440    -0.6150 o          1 16S      -0.545100
     19 CAI         -2.9010     0.4110     0.2310 cd         1 16S      -0.321200
     20 H1          -0.5460    -0.3400    -0.9140 ha         1 16S       0.148000
     21 H2           1.5140    -0.4820    -1.9010 ho         1 16S       0.419000
     22 H3           3.8890     0.1300     1.9610 ho         1 16S       0.420000
     23 H4           2.0470     0.3270     3.3160 ha         1 16S       0.143000
     24 H5          -0.4450     0.3160     3.3690 ha         1 16S       0.153000
     25 H6          -3.7060    -1.1830     4.6560 ha         1 16S       0.154000
     26 H7          -6.1740    -1.2900     5.0920 ha         1 16S       0.140000
     27 H8          -7.7900    -0.6160     3.3190 ha         1 16S       0.142000
     28 H9          -6.9530     0.1720     1.0870 ha         1 16S       0.161000
     29 H10         -2.4700     0.7700    -0.7150 ha         1 16S       0.167000
@<TRIPOS>BOND
     1     1     2 ar  
     2     1     8 ar  
     3     1    20 1   
     4     2     3 1   
     5     2     4 ar  
     6     3    21 1   
     7     4     5 1   
     8     4     6 ar  
     9     5    22 1   
    10     6     7 ar  
    11     6    23 1   
    12     7     8 ar  
    13     7    24 1   
    14     8     9 1   
    15     9    10 1   
    16     9    19 2   
    17    10    11 1   
    18    11    12 ar  
    19    11    16 ar  
    20    12    13 ar  
    21    12    25 1   
    22    13    14 ar  
    23    13    26 1   
    24    14    15 ar  
    25    14    27 1   
    26    15    16 ar  
    27    15    28 1   
    28    16    17 1   
    29    17    18 2   
    30    17    19 1   
    31    19    29 1   
@<TRIPOS>SUBSTRUCTURE
     1 16S         1 TEMP              0 ****  ****    0 ROOT
