@<TRIPOS>MOLECULE
16S
   29    31     1     0     0
SMALL
bcc


@<TRIPOS>ATOM
      1 CAM        -0.1020    0.2340    0.0090 ca        1 16S     -0.093000
      2 CAL         1.2910    0.1520   -0.0790 ca        1 16S      0.104100
      3 OAR         1.8670    0.4860   -1.2820 oh        1 16S     -0.490100
      4 CAP         2.0430   -0.2610    1.0430 ca        1 16S      0.062100
      5 OAS         3.4090   -0.3140    0.8740 oh        1 16S     -0.512100
      6 CAO         1.3990   -0.5910    2.2390 ca        1 16S     -0.178000
      7 CAN         0.0120   -0.5070    2.3220 ca        1 16S     -0.097000
      8 CAK        -0.7400   -0.0910    1.2140 ca        1 16S     -0.074800
      9 CAJ        -2.1960    0.0100    1.3240 cc        1 16S      0.199900
     10 OAG        -2.8100   -0.1910    0.0950 os        1 16S     -0.223200
     11 CAF        -4.1940   -0.1120    0.0620 ca        1 16S      0.142100
     12 CAA        -4.7750   -0.3150   -1.2040 ca        1 16S     -0.158000
     13 CAB        -6.1580   -0.2540   -1.3170 ca        1 16S     -0.078000
     14 CAC        -6.9570    0.0050   -0.1970 ca        1 16S     -0.166000
     15 CAD        -6.3750    0.2040    1.0480 ca        1 16S     -0.047000
     16 CAE        -4.9800    0.1480    1.1950 ca        1 16S     -0.214600
     17 CAH        -4.3350    0.3560    2.5000 c         1 16S      0.590900
     18 OAQ        -4.9680    0.5830    3.5420 o         1 16S     -0.546100
     19 CAI        -2.8760    0.2730    2.4640 cd        1 16S     -0.320200
     20 H1         -0.6840    0.5510   -0.8700 ha        1 16S      0.170000
     21 H2          2.8280    0.3840   -1.1930 ho        1 16S      0.439000
     22 H3          3.8030   -0.6050    1.7090 ho        1 16S      0.434000
     23 H4          1.9870   -0.9170    3.1100 ha        1 16S      0.142000
     24 H5         -0.4920   -0.7760    3.2620 ha        1 16S      0.147000
     25 H6         -4.1330   -0.5170   -2.0720 ha        1 16S      0.155000
     26 H7         -6.6290   -0.4100   -2.3000 ha        1 16S      0.140000
     27 H8         -8.0510    0.0500   -0.3060 ha        1 16S      0.141000
     28 H9         -6.9890    0.4080    1.9400 ha        1 16S      0.161000
     29 H10        -2.3480    0.4440    3.4130 ha        1 16S      0.168000
@<TRIPOS>BOND
     1    1    2 ar  
     2    1    8 ar  
     3    1   20 1   
     4    2    3 1   
     5    2    4 ar  
     6    3   21 1   
     7    4    5 1   
     8    4    6 ar  
     9    5   22 1   
    10    6    7 ar  
    11    6   23 1   
    12    7    8 ar  
    13    7   24 1   
    14    8    9 1   
    15    9   10 1   
    16    9   19 2   
    17   10   11 1   
    18   11   12 ar  
    19   11   16 ar  
    20   12   13 ar  
    21   12   25 1   
    22   13   14 ar  
    23   13   26 1   
    24   14   15 ar  
    25   14   27 1   
    26   15   16 ar  
    27   15   28 1   
    28   16   17 1   
    29   17   18 2   
    30   17   19 1   
    31   19   29 1   
@<TRIPOS>SUBSTRUCTURE
     1 16S         1 TEMP              0 ****  ****    0 ROOT
