@<TRIPOS>MOLECULE
molecule
   29    31     1     0     0
SMALL
bcc


@<TRIPOS>ATOM
      1 CAM          0.0000     0.0000     0.0000 ca         1 16S      -0.120000
      2 CAL          1.3810     0.0000     0.0000 ca         1 16S       0.086100
      3 OAR          2.0620     0.0030    -1.1770 oh         1 16S      -0.506100
      4 CAP          2.0780     0.0000     1.2070 ca         1 16S       0.113100
      5 OAS          3.4360     0.0010     1.2060 oh         1 16S      -0.508100
      6 CAO          1.3880    -0.0020     2.4110 ca         1 16S      -0.157000
      7 CAN          0.0090    -0.0030     2.4180 ca         1 16S      -0.091000
      8 CAK         -0.6960    -0.0020     1.2120 ca         1 16S      -0.067800
      9 CAJ         -2.1710     0.0030     1.2180 cc         1 16S       0.210900
     10 OAG         -2.8210     0.0110     0.0430 os         1 16S      -0.216200
     11 CAF         -4.1680     0.0160    -0.0360 ca         1 16S       0.156100
     12 CAA         -4.8090     0.0230    -1.2670 ca         1 16S      -0.156000
     13 CAB         -6.1870     0.0290    -1.3260 ca         1 16S      -0.075000
     14 CAC         -6.9440     0.0270    -0.1640 ca         1 16S      -0.165000
     15 CAD         -6.3270     0.0210     1.0680 ca         1 16S      -0.039000
     16 CAE         -4.9360     0.0150     1.1400 ca         1 16S      -0.227600
     17 CAH         -4.2340     0.0080     2.4390 c          1 16S       0.584900
     18 OAQ         -4.8500     0.0060     3.4930 o          1 16S      -0.548100
     19 CAI         -2.8210    -0.0040     2.4140 cd         1 16S      -0.340200
     20 H1          -0.5430     0.0010    -0.9380 ha         1 16S       0.158000
     21 H2           1.9830    -0.8420    -1.5880 ho         1 16S       0.425000
     22 H3           3.7500     0.8590     1.4400 ho         1 16S       0.428000
     23 H4           1.9330    -0.0020     3.3480 ha         1 16S       0.151000
     24 H5          -0.5280    -0.0050     3.3590 ha         1 16S       0.149000
     25 H6          -4.2270     0.0250    -2.1810 ha         1 16S       0.147000
     26 H7          -6.6820     0.0340    -2.2890 ha         1 16S       0.140000
     27 H8          -8.0260     0.0320    -0.2260 ha         1 16S       0.139000
     28 H9          -6.9200     0.0190     1.9740 ha         1 16S       0.160000
     29 H10         -2.2640    -0.1490     3.3320 ha         1 16S       0.169000
@<TRIPOS>BOND
     1     5     4 1   
     2     4     6 ar  
     3     4     2 ar  
     4     3     2 1   
     5     6     7 ar  
     6     2     1 ar  
     7     7     8 ar  
     8     1     8 ar  
     9     8     9 1   
    10     9    10 1   
    11     9    19 2   
    12    10    11 1   
    13    19    17 1   
    14    11    12 ar  
    15    11    16 ar  
    16    12    13 ar  
    17    17    16 1   
    18    17    18 2   
    19    16    15 ar  
    20    13    14 ar  
    21    15    14 ar  
    22     1    20 1   
    23     3    21 1   
    24     5    22 1   
    25     6    23 1   
    26     7    24 1   
    27    12    25 1   
    28    13    26 1   
    29    14    27 1   
    30    15    28 1   
    31    19    29 1   
@<TRIPOS>SUBSTRUCTURE
     1 16S         1 TEMP              0 ****  ****    0 ROOT
