@<TRIPOS>MOLECULE
molecule
   55    58     1     0     0
SMALL
bcc


@<TRIPOS>ATOM
      1 C1           0.0000     0.0000     0.0000 c3         1 16T      -0.014900
      2 C2           1.5070     0.0000     0.0000 cc         1 16T      -0.275400
      3 C3           2.1900     0.0000     1.1640 cd         1 16T       0.030600
      4 N4           3.5590    -0.0010     1.1460 n          1 16T      -0.363000
      5 C5           4.2290    -0.0010    -0.0210 c          1 16T       0.809500
      6 O6           5.4450    -0.0000    -0.0130 o          1 16T      -0.665500
      7 N7           3.5720    -0.0010    -1.1950 ns         1 16T      -0.558500
      8 C8           2.2240    -0.0060    -1.2200 c          1 16T       0.707700
      9 O9           1.6290    -0.0060    -2.2830 o          1 16T      -0.616500
     10 C10          4.3010    -0.0000     2.4090 c3         1 16T       0.113700
     11 C11          5.1840    -1.2480     2.4830 c3         1 16T      -0.103400
     12 C12          5.9360    -1.2670     3.8160 c3         1 16T      -0.088400
     13 C13          6.8350    -0.0300     3.9060 c3         1 16T       0.230800
     14 N14          6.0150     1.1690     3.6920 n3         1 16T      -0.816500
     15 C15          5.1830     1.2500     2.4840 c3         1 16T       0.212800
     16 S16          6.0280     2.4080     4.7920 sy         1 16T       1.427200
     17 O17          4.8030     3.1060     4.6230 o          1 16T      -0.634800
     18 O18          6.4360     1.8410     6.0290 o          1 16T      -0.634800
     19 C19          7.3060     3.5210     4.3080 ca         1 16T      -0.292500
     20 C20          7.0230     4.5620     3.4460 ca         1 16T      -0.043000
     21 C21          8.0220     5.4390     3.0640 ca         1 16T      -0.161000
     22 C22          9.3100     5.2740     3.5470 ca         1 16T       0.142100
     23 C23          9.5950     4.2240     4.4160 ca         1 16T       0.098100
     24 C24          8.5880     3.3530     4.7990 ca         1 16T      -0.097000
     25 O25         10.8580     4.0580     4.8930 os         1 16T      -0.230200
     26 C26         11.0900     3.0160     5.7330 ca         1 16T       0.098100
     27 C27         11.4710     1.7840     5.2240 ca         1 16T      -0.138000
     28 C28         11.7070     0.7260     6.0800 ca         1 16T      -0.112000
     29 C29         11.5640     0.8940     7.4460 ca         1 16T      -0.118000
     30 C30         11.1840     2.1220     7.9560 ca         1 16T       0.040400
     31 C31         10.9510     3.1850     7.1040 ca         1 16T      -0.130000
     32 Cl1         11.0030     2.3300     9.6710 cl         1 16T      -0.095400
     33 O33         10.2940     6.1340     3.1720 oh         1 16T      -0.503100
     34 H1          -0.3610    -0.9600    -0.3480 hc         1 16T       0.049367
     35 H2          -0.3610     0.7820    -0.6570 hc         1 16T       0.049367
     36 H3          -0.3610     0.1790     1.0060 hc         1 16T       0.049367
     37 H4           1.6580     0.0000     2.1080 h4         1 16T       0.168000
     38 H5           4.0860    -0.0030    -2.0540 hn         1 16T       0.364500
     39 H6           3.6070    -0.0010     3.2410 h1         1 16T       0.074700
     40 H7           5.8970    -1.2330     1.6680 hc         1 16T       0.068700
     41 H8           4.5630    -2.1330     2.4080 hc         1 16T       0.068700
     42 H9           5.2230    -1.2540     4.6320 hc         1 16T       0.054200
     43 H10          6.5450    -2.1610     3.8740 hc         1 16T       0.054200
     44 H11          7.2920     0.0140     4.8880 h1         1 16T       0.061700
     45 H12          7.6040    -0.0840     3.1440 h1         1 16T       0.061700
     46 H13          5.8190     1.2970     1.6090 h1         1 16T       0.079200
     47 H14          4.5570     2.1320     2.5340 h1         1 16T       0.079200
     48 H15          6.0160     4.6930     3.0680 ha         1 16T       0.153000
     49 H16          7.7970     6.2550     2.3880 ha         1 16T       0.151000
     50 H17          8.8070     2.5360     5.4750 ha         1 16T       0.165000
     51 H18         11.5840     1.6510     4.1550 ha         1 16T       0.150000
     52 H19         12.0050    -0.2360     5.6820 ha         1 16T       0.143000
     53 H20         11.7480     0.0630     8.1160 ha         1 16T       0.149000
     54 H21         10.6540     4.1470     7.5050 ha         1 16T       0.159000
     55 H22         10.1430     6.9760     3.5680 ho         1 16T       0.427000
@<TRIPOS>BOND
     1     9     8 2
     2     7     8 1
     3     7     5 1
     4     8     2 1
     5     6     5 2
     6     5     4 1
     7     2     1 1
     8     2     3 2
     9    32    30 1
    10     4     3 1
    11     4    10 1
    12    30    29 ar
    13    30    31 ar
    14    29    28 ar
    15    10    15 1
    16    10    11 1
    17    31    26 ar
    18    28    27 ar
    19    15    14 1
    20    11    12 1
    21    18    16 2
    22    26    27 ar
    23    26    25 1
    24    14    16 1
    25    14    13 1
    26    12    13 1
    27    25    23 1
    28    16    19 1
    29    16    17 2
    30    24    23 ar
    31    24    19 ar
    32    23    22 ar
    33    19    20 ar
    34    22    33 1
    35    22    21 ar
    36    20    21 ar
    37     1    34 1
    38     1    35 1
    39     1    36 1
    40     3    37 1
    41     7    38 1
    42    10    39 1
    43    11    40 1
    44    11    41 1
    45    12    42 1
    46    12    43 1
    47    13    44 1
    48    13    45 1
    49    15    46 1
    50    15    47 1
    51    20    48 1
    52    21    49 1
    53    24    50 1
    54    27    51 1
    55    28    52 1
    56    29    53 1
    57    31    54 1
    58    33    55 1
@<TRIPOS>SUBSTRUCTURE
     1 16T         1 TEMP              0 ****  ****    0 ROOT
