@<TRIPOS>MOLECULE
16T
   55    58     1     0     0
SMALL
bcc


@<TRIPOS>ATOM
      1 C1           0.6820     0.5380    -1.0120 c3         1 16T      -0.030900
      2 C2           2.0990     0.6870    -0.6250 cc         1 16T      -0.253400
      3 C3           2.5410     0.5250     0.6520 cd         1 16T       0.034600
      4 N4           3.8740     0.6560     1.0090 n          1 16T      -0.372000
      5 C5           4.8380     0.9960     0.0190 c          1 16T       0.808500
      6 O6           6.0430     1.1490     0.3090 o          1 16T      -0.634500
      7 N7           4.4000     1.1600    -1.3030 ns         1 16T      -0.583500
      8 C8           3.0570     1.0220    -1.6950 c          1 16T       0.716700
      9 O9           2.7640     1.1920    -2.8900 o          1 16T      -0.606500
     10 C10          4.3040     0.4770     2.3880 c3         1 16T       0.090700
     11 C11          3.6680     1.4910     3.3520 c3         1 16T      -0.091400
     12 C12          4.1940     1.2570     4.7510 c3         1 16T      -0.090400
     13 C13          3.9470    -0.1840     5.1990 c3         1 16T       0.219800
     14 N14          4.4160    -1.1700     4.2590 n3         1 16T      -0.810500
     15 C15          4.0030    -0.9670     2.8980 c3         1 16T       0.210800
     16 S16          5.3640    -2.4210     4.7150 sy         1 16T       1.514200
     17 O17          6.1590    -2.0340     5.8150 o          1 16T      -0.645300
     18 O18          6.0260    -2.9440     3.5860 o          1 16T      -0.645300
     19 C19          4.2500    -3.5670     5.2600 ca         1 16T      -0.412500
     20 C20          3.9690    -3.6920     6.6270 ca         1 16T       0.023000
     21 C21          3.0880    -4.6540     7.1010 ca         1 16T      -0.240000
     22 C22          2.4590    -5.5270     6.1960 ca         1 16T       0.189100
     23 C23          2.7390    -5.4140     4.8130 ca         1 16T       0.025100
     24 C24          3.6320    -4.4440     4.3600 ca         1 16T       0.015000
     25 O25          2.2570    -6.3700     3.9240 os         1 16T      -0.227200
     26 C26          1.0340    -6.0900     3.3210 ca         1 16T       0.129100
     27 C27          0.2930    -4.9240     3.5390 ca         1 16T      -0.192000
     28 C28         -0.9170    -4.7570     2.8670 ca         1 16T      -0.092000
     29 C29         -1.3850    -5.7310     1.9890 ca         1 16T      -0.154000
     30 C30         -0.6300    -6.8930     1.7830 ca         1 16T       0.045400
     31 C31          0.5840    -7.0900     2.4420 ca         1 16T      -0.143000
     32 Cl1         -1.1990    -8.0850     0.7140 cl         1 16T      -0.084400
     33 O33          1.5770    -6.4920     6.5850 oh         1 16T      -0.464100
     34 H1           0.3410     1.4480    -1.5690 hc         1 16T       0.051367
     35 H2           0.0290     0.3950    -0.1170 hc         1 16T       0.051367
     36 H3           0.5630    -0.3430    -1.6920 hc         1 16T       0.051367
     37 H4           1.8480     0.2790     1.4800 h4         1 16T       0.162000
     38 H5           5.0940     1.3860    -1.9830 hn         1 16T       0.355500
     39 H6           5.4280     0.6300     2.4080 h1         1 16T       0.116700
     40 H7           3.9150     2.5350     3.0270 hc         1 16T       0.052700
     41 H8           2.5520     1.3850     3.3450 hc         1 16T       0.052700
     42 H9           5.2900     1.4880     4.7900 hc         1 16T       0.061200
     43 H10          3.6750     1.9440     5.4700 hc         1 16T       0.061200
     44 H11          4.4680    -0.3500     6.1870 h1         1 16T       0.052200
     45 H12          2.8370    -0.3230     5.3570 h1         1 16T       0.052200
     46 H13          4.5430    -1.7060     2.2360 h1         1 16T       0.060200
     47 H14          2.8930    -1.1570     2.8150 h1         1 16T       0.060200
     48 H15          4.4760    -3.0190     7.3430 ha         1 16T       0.162000
     49 H16          2.8870    -4.7450     8.1780 ha         1 16T       0.148000
     50 H17          3.8690    -4.3920     3.2820 ha         1 16T       0.170000
     51 H18          0.6560    -4.1560     4.2360 ha         1 16T       0.142000
     52 H19         -1.5100    -3.8450     3.0340 ha         1 16T       0.137000
     53 H20         -2.3410    -5.5910     1.4630 ha         1 16T       0.150000
     54 H21          1.1850    -7.9980     2.2920 ha         1 16T       0.168000
     55 H22          1.5190    -6.4800     7.5550 ho         1 16T       0.431000
@<TRIPOS>BOND
     1     1     2 1   
     2     1    34 1   
     3     1    35 1   
     4     1    36 1   
     5     2     3 2   
     6     2     8 1   
     7     3     4 1   
     8     3    37 1   
     9     4     5 1   
    10     4    10 1   
    11     5     6 2   
    12     5     7 1   
    13     7     8 1   
    14     7    38 1   
    15     8     9 2   
    16    10    11 1   
    17    10    15 1   
    18    10    39 1   
    19    11    12 1   
    20    11    40 1   
    21    11    41 1   
    22    12    13 1   
    23    12    42 1   
    24    12    43 1   
    25    13    14 1   
    26    13    44 1   
    27    13    45 1   
    28    14    15 1   
    29    14    16 1   
    30    15    46 1   
    31    15    47 1   
    32    16    17 2   
    33    16    18 2   
    34    16    19 1   
    35    19    20 ar  
    36    19    24 ar  
    37    20    21 ar  
    38    20    48 1   
    39    21    22 ar  
    40    21    49 1   
    41    22    23 ar  
    42    22    33 1   
    43    23    24 ar  
    44    23    25 1   
    45    24    50 1   
    46    25    26 1   
    47    26    27 ar  
    48    26    31 ar  
    49    27    28 ar  
    50    27    51 1   
    51    28    29 ar  
    52    28    52 1   
    53    29    30 ar  
    54    29    53 1   
    55    30    31 ar  
    56    30    32 1   
    57    31    54 1   
    58    33    55 1   
@<TRIPOS>SUBSTRUCTURE
     1 16T         1 TEMP              0 ****  ****    0 ROOT
