@<TRIPOS>MOLECULE
16T
   55    58     1     0     0
SMALL
bcc


@<TRIPOS>ATOM
      1 C1           0.0000     0.0000     0.0000 c3         1 16T       0.101100
      2 C2           1.5070     0.0000     0.0000 cc         1 16T      -0.277400
      3 C3           2.1900     0.0000     1.1640 cd         1 16T      -0.099400
      4 N4           3.5590    -0.0010     1.1460 n          1 16T       0.058000
      5 C5           4.2290    -0.0010    -0.0210 c          1 16T       0.588500
      6 O6           5.4450    -0.0000    -0.0130 o          1 16T      -0.715500
      7 N7           3.5720    -0.0010    -1.1950 ns         1 16T      -0.125500
      8 C8           2.2240    -0.0060    -1.2200 c          1 16T       0.618700
      9 O9           1.6290    -0.0060    -2.2830 o          1 16T      -0.656500
     10 C10          4.3010    -0.0000     2.4090 c3         1 16T       0.004700
     11 C11          5.1840    -1.2480     2.4830 c3         1 16T      -0.061400
     12 C12          5.9360    -1.2670     3.8160 c3         1 16T      -0.029400
     13 C13          6.8350    -0.0300     3.9060 c3         1 16T       0.229800
     14 N14          6.0150     1.1690     3.6920 n3         1 16T      -0.523500
     15 C15          5.1830     1.2500     2.4840 c3         1 16T       0.196800
     16 S16          6.0280     2.4080     4.7920 sy         1 16T       1.054200
     17 O17          4.8030     3.1060     4.6230 o          1 16T      -0.588800
     18 O18          6.4360     1.8410     6.0290 o          1 16T      -0.588800
     19 C19          7.3060     3.5210     4.3080 ca         1 16T      -0.139500
     20 C20          7.0230     4.5620     3.4460 ca         1 16T      -0.009000
     21 C21          8.0220     5.4390     3.0640 ca         1 16T      -0.152000
     22 C22          9.3100     5.2740     3.5470 ca         1 16T       0.149100
     23 C23          9.5950     4.2240     4.4160 ca         1 16T       0.089100
     24 C24          8.5880     3.3530     4.7990 ca         1 16T      -0.078000
     25 O25         10.8580     4.0580     4.8930 os         1 16T      -0.204200
     26 C26         11.0900     3.0160     5.7330 ca         1 16T       0.102100
     27 C27         11.4710     1.7840     5.2240 ca         1 16T      -0.118000
     28 C28         11.7070     0.7260     6.0800 ca         1 16T      -0.077000
     29 C29         11.5640     0.8940     7.4460 ca         1 16T      -0.098000
     30 C30         11.1840     2.1220     7.9560 ca         1 16T      -0.019600
     31 C31         10.9510     3.1850     7.1040 ca         1 16T      -0.112000
     32 Cl1         11.0030     2.3300     9.6710 cl         1 16T      -0.014400
     33 O33         10.2940     6.1340     3.1720 oh         1 16T      -0.484100
     34 H1          -0.3610    -0.9600    -0.3480 hc         1 16T       0.011367
     35 H2          -0.3610     0.7820    -0.6570 hc         1 16T       0.011367
     36 H3          -0.3610     0.1790     1.0060 hc         1 16T       0.011367
     37 H4           1.6580     0.0000     2.1080 h4         1 16T       0.140000
     38 H5           4.0860    -0.0030    -2.0540 hn         1 16T       0.206500
     39 H6           3.6070    -0.0010     3.2410 h1         1 16T       0.048700
     40 H7           5.8970    -1.2330     1.6680 hc         1 16T       0.041200
     41 H8           4.5630    -2.1330     2.4080 hc         1 16T       0.041200
     42 H9           5.2230    -1.2540     4.6320 hc         1 16T       0.021700
     43 H10          6.5450    -2.1610     3.8740 hc         1 16T       0.021700
     44 H11          7.2920     0.0140     4.8880 h1         1 16T       0.027700
     45 H12          7.6040    -0.0840     3.1440 h1         1 16T       0.027700
     46 H13          5.8190     1.2970     1.6090 h1         1 16T       0.049700
     47 H14          4.5570     2.1320     2.5340 h1         1 16T       0.049700
     48 H15          6.0160     4.6930     3.0680 ha         1 16T       0.124000
     49 H16          7.7970     6.2550     2.3880 ha         1 16T       0.121000
     50 H17          8.8070     2.5360     5.4750 ha         1 16T       0.144000
     51 H18         11.5840     1.6510     4.1550 ha         1 16T       0.119000
     52 H19         12.0050    -0.2360     5.6820 ha         1 16T       0.109000
     53 H20         11.7480     0.0630     8.1160 ha         1 16T       0.117000
     54 H21         10.6540     4.1470     7.5050 ha         1 16T       0.127000
     55 H22         10.1430     6.9760     3.5680 ho         1 16T       0.408000
@<TRIPOS>BOND
     1     1     2 1   
     2     1    34 1   
     3     1    35 1   
     4     1    36 1   
     5     2     3 2   
     6     2     8 1   
     7     3     4 1   
     8     3    37 1   
     9     4     5 1   
    10     4    10 1   
    11     5     6 2   
    12     5     7 1   
    13     7     8 1   
    14     7    38 1   
    15     8     9 2   
    16    10    11 1   
    17    10    15 1   
    18    10    39 1   
    19    11    12 1   
    20    11    40 1   
    21    11    41 1   
    22    12    13 1   
    23    12    42 1   
    24    12    43 1   
    25    13    14 1   
    26    13    44 1   
    27    13    45 1   
    28    14    15 1   
    29    14    16 1   
    30    15    46 1   
    31    15    47 1   
    32    16    17 2   
    33    16    18 2   
    34    16    19 1   
    35    19    20 ar  
    36    19    24 ar  
    37    20    21 ar  
    38    20    48 1   
    39    21    22 ar  
    40    21    49 1   
    41    22    23 ar  
    42    22    33 1   
    43    23    24 ar  
    44    23    25 1   
    45    24    50 1   
    46    25    26 1   
    47    26    27 ar  
    48    26    31 ar  
    49    27    28 ar  
    50    27    51 1   
    51    28    29 ar  
    52    28    52 1   
    53    29    30 ar  
    54    29    53 1   
    55    30    31 ar  
    56    30    32 1   
    57    31    54 1   
    58    33    55 1   
@<TRIPOS>SUBSTRUCTURE
     1 16T         1 TEMP              0 ****  ****    0 ROOT
