@<TRIPOS>MOLECULE
16V
   37    38     1     0     0
SMALL
bcc


@<TRIPOS>ATOM
      1 OAC          1.1850     1.6250     0.0590 o          1 16V      -0.825800
      2 CAO          1.9110     0.6020    -0.0900 c          1 16V       0.909200
      3 OAD          2.4270    -0.0550     0.8560 o          1 16V      -0.825800
      4 CAS          2.1810     0.1280    -1.5140 ca         1 16V      -0.106600
      5 CAH          1.6490     0.8360    -2.5930 ca         1 16V      -0.152000
      6 CAG          2.9570    -1.0120    -1.7480 ca         1 16V      -0.114000
      7 CAF          3.2050    -1.4530    -3.0430 ca         1 16V      -0.167000
      8 CAR          2.6690    -0.7520    -4.1370 ca         1 16V       0.058900
      9 FAE          2.9020    -1.1770    -5.4050 f          1 16V      -0.164900
     10 CAT          1.8870     0.4040    -3.9000 ca         1 16V       0.056100
     11 OAN          1.4310     1.0480    -5.0410 os         1 16V      -0.348900
     12 CAJ          0.4060     2.0240    -4.8200 c3         1 16V       0.127400
     13 CAI         -0.1030     2.4100    -6.1990 c3         1 16V      -0.080400
     14 CAK         -0.9740     1.3190    -6.8030 c3         1 16V      -0.002100
     15 CAU         -0.8070     1.2080    -8.2570 cc         1 16V      -0.241600
     16 CAP          0.3130     0.7070    -8.9490 cd         1 16V      -0.082600
     17 CAA          1.5880     0.1910    -8.4270 c3         1 16V      -0.049800
     18 NAL         -0.0140     0.7880   -10.3110 na         1 16V      -0.028600
     19 NAM         -1.2300     1.2880   -10.5220 nd         1 16V      -0.534800
     20 CAQ         -1.7610     1.5630    -9.2930 cc         1 16V       0.305600
     21 CAB         -3.1000     2.1300    -9.0530 c3         1 16V      -0.116400
     22 H2           1.0460     1.7320    -2.3750 ha         1 16V       0.164000
     23 H3           3.3670    -1.5490    -0.8770 ha         1 16V       0.159000
     24 H4           3.8150    -2.3470    -3.2300 ha         1 16V       0.123000
     25 H5          -0.4100     1.5900    -4.1850 h1         1 16V       0.045700
     26 H6           0.8540     2.9110    -4.2990 h1         1 16V       0.045700
     27 H7          -0.6850     3.3620    -6.1090 hc         1 16V       0.050200
     28 H8           0.7780     2.6060    -6.8650 hc         1 16V       0.050200
     29 H9          -2.0530     1.5200    -6.5630 hc         1 16V       0.053700
     30 H10         -0.7020     0.3330    -6.3320 hc         1 16V       0.053700
     31 H11          1.7450    -0.8730    -8.7350 hc         1 16V       0.064700
     32 H12          2.4490     0.8000    -8.8010 hc         1 16V       0.064700
     33 H13          1.5810     0.2390    -7.3040 hc         1 16V       0.064700
     34 H14          0.5550     0.5120   -11.0740 hn         1 16V       0.310700
     35 H15         -3.6350     2.3650   -10.0060 hc         1 16V       0.044033
     36 H16         -3.7150     1.3990    -8.4690 hc         1 16V       0.044033
     37 H17         -3.0070     3.0700    -8.4540 hc         1 16V       0.044033
@<TRIPOS>BOND
     1     1     2 1   
     2     2     3 1   
     3     2     4 1   
     4     4     5 ar  
     5     4     6 ar  
     6     5    10 ar  
     7     5    22 1   
     8     6     7 ar  
     9     6    23 1   
    10     7     8 ar  
    11     7    24 1   
    12     8     9 1   
    13     8    10 ar  
    14    10    11 1   
    15    11    12 1   
    16    12    13 1   
    17    12    25 1   
    18    12    26 1   
    19    13    14 1   
    20    13    27 1   
    21    13    28 1   
    22    14    15 1   
    23    14    29 1   
    24    14    30 1   
    25    15    16 2   
    26    15    20 1   
    27    16    17 1   
    28    16    18 1   
    29    17    31 1   
    30    17    32 1   
    31    17    33 1   
    32    18    19 1   
    33    18    34 1   
    34    19    20 2   
    35    20    21 1   
    36    21    35 1   
    37    21    36 1   
    38    21    37 1   
@<TRIPOS>SUBSTRUCTURE
     1 16V         1 TEMP              0 ****  ****    0 ROOT
