@<TRIPOS>MOLECULE
molecule
   37    38     1     0     0
SMALL
bcc


@<TRIPOS>ATOM
      1 OAC          0.0000     0.0000     0.0000 o          1 16V      -0.834300
      2 CAO          1.2140     0.0000     0.0000 c          1 16V       0.882200
      3 OAD          1.8880     0.0000     1.1670 o          1 16V      -0.834300
      4 CAS          1.9530    -0.0070    -1.2780 ca         1 16V      -0.080600
      5 CAH          1.2580    -0.0080    -2.4890 ca         1 16V      -0.174000
      6 CAG          3.3500    -0.0070    -1.2800 ca         1 16V      -0.107000
      7 CAF          4.0370    -0.0150    -2.4760 ca         1 16V      -0.169000
      8 CAR          3.3460    -0.0210    -3.6760 ca         1 16V       0.070900
      9 FAE          4.0250    -0.0280    -4.8440 f          1 16V      -0.161900
     10 CAT          1.9550    -0.0090    -3.6820 ca         1 16V       0.071100
     11 OAN          1.2820    -0.0150    -4.8640 os         1 16V      -0.339900
     12 CAJ         -0.1460    -0.0020    -4.7960 c3         1 16V       0.138400
     13 CAI         -0.7230    -0.0110    -6.2130 c3         1 16V      -0.079400
     14 CAK         -2.2510     0.0020    -6.1420 c3         1 16V       0.002900
     15 CAU         -2.8200    -0.0070    -7.5370 cc         1 16V      -0.293600
     16 CAP         -3.1310    -1.1060    -8.2630 cd         1 16V      -0.069600
     17 CAA         -2.9690    -2.5370    -7.8210 c3         1 16V      -0.027800
     18 NAL         -3.6100    -0.6910    -9.4540 na         1 16V      -0.049600
     19 NAM         -3.5940     0.7100    -9.4600 nc         1 16V      -0.526800
     20 CAQ         -3.1270     1.1190    -8.3080 cd         1 16V       0.351600
     21 CAB         -2.9400     2.5550    -7.8890 c3         1 16V      -0.110400
     22 H2           0.1740     0.0000    -2.4930 ha         1 16V       0.156000
     23 H3           3.8930    -0.0030    -0.3430 ha         1 16V       0.161000
     24 H4           5.1210    -0.0150    -2.4760 ha         1 16V       0.124000
     25 H5          -0.4750     0.8910    -4.2780 h1         1 16V       0.039200
     26 H6          -0.4910    -0.8780    -4.2600 h1         1 16V       0.039200
     27 H7          -0.3930    -0.9040    -6.7310 hc         1 16V       0.050700
     28 H8          -0.3790     0.8650    -6.7490 hc         1 16V       0.050700
     29 H9          -2.5950    -0.8740    -5.6060 hc         1 16V       0.047700
     30 H10         -2.5810     0.8940    -5.6230 hc         1 16V       0.047700
     31 H11         -3.4770    -2.6820    -6.8750 hc         1 16V       0.051033
     32 H12         -3.3990    -3.1960    -8.5660 hc         1 16V       0.051033
     33 H13         -1.9160    -2.7630    -7.7040 hc         1 16V       0.051033
     34 H14         -3.9200    -1.2790   -10.2020 hn         1 16V       0.321700
     35 H15         -1.8840     2.7590    -7.7610 hc         1 16V       0.050033
     36 H16         -3.4570     2.7280    -6.9530 hc         1 16V       0.050033
     37 H17         -3.3450     3.2090    -8.6520 hc         1 16V       0.050033
@<TRIPOS>BOND
     1    19    18 1   
     2    19    20 2   
     3    18    16 1   
     4    20    21 1   
     5    20    15 1   
     6    16    17 1   
     7    16    15 2   
     8    15    14 1   
     9    14    13 1   
    10    13    12 1   
    11    12    11 1   
    12    11    10 1   
    13     9     8 1   
    14    10     8 ar  
    15    10     5 ar  
    16     8     7 ar  
    17     5     4 ar  
    18     7     6 ar  
    19     4     6 ar  
    20     4     2 1   
    21     1     2 1   
    22     2     3 1   
    23     5    22 1   
    24     6    23 1   
    25     7    24 1   
    26    12    25 1   
    27    12    26 1   
    28    13    27 1   
    29    13    28 1   
    30    14    29 1   
    31    14    30 1   
    32    17    31 1   
    33    17    32 1   
    34    17    33 1   
    35    18    34 1   
    36    21    35 1   
    37    21    36 1   
    38    21    37 1   
@<TRIPOS>SUBSTRUCTURE
     1 16V         1 TEMP              0 ****  ****    0 ROOT
