@<TRIPOS>MOLECULE
16V
   37    38     1     0     0
SMALL
bcc


@<TRIPOS>ATOM
      1 OAC         0.1340    0.5490    0.1680 o         1 16V     -0.826800
      2 CAO         1.3570    0.2330    0.1630 c         1 16V      0.909200
      3 OAD         2.0680    0.1110    1.1990 o         1 16V     -0.826800
      4 CAS         2.0170   -0.0200   -1.1870 ca        1 16V     -0.106600
      5 CAH         1.2720    0.1210   -2.3590 ca        1 16V     -0.155000
      6 CAG         3.3620   -0.3950   -1.2610 ca        1 16V     -0.115000
      7 CAF         3.9690   -0.6330   -2.4900 ca        1 16V     -0.168000
      8 CAR         3.2270   -0.5010   -3.6770 ca        1 16V      0.061900
      9 FAE         3.8140   -0.7360   -4.8780 f         1 16V     -0.159900
     10 CAT         1.8660   -0.1180   -3.6020 ca        1 16V      0.057100
     11 OAN         1.2200    0.0060   -4.8240 os        1 16V     -0.337900
     12 CAJ        -0.1950    0.2030   -4.7380 c3        1 16V      0.128400
     13 CAI        -0.7120    0.1230   -6.1640 c3        1 16V     -0.082400
     14 CAK        -2.2210    0.2840   -6.1820 c3        1 16V     -0.002100
     15 CAU        -2.7850    0.0950   -7.5230 cc        1 16V     -0.234600
     16 CAP        -2.8280   -1.0870   -8.2880 cd        1 16V     -0.098600
     17 CAA        -2.3060   -2.4260   -7.9780 c3        1 16V     -0.034800
     18 NAL        -3.4850   -0.7480   -9.4810 na        1 16V     -0.025600
     19 NAM        -3.8510    0.5310   -9.5220 nd        1 16V     -0.527800
     20 CAQ        -3.4450    1.0960   -8.3450 cc        1 16V      0.311600
     21 CAB        -3.6470    2.5050   -7.9630 c3        1 16V     -0.120400
     22 H2          0.2170    0.4240   -2.2620 ha        1 16V      0.164000
     23 H3          3.9270   -0.4960   -0.3200 ha        1 16V      0.158000
     24 H4          5.0250   -0.9260   -2.5520 ha        1 16V      0.123000
     25 H5         -0.4040    1.2100   -4.2880 h1        1 16V      0.043200
     26 H6         -0.6560   -0.5930   -4.0960 h1        1 16V      0.043200
     27 H7         -0.4260   -0.8650   -6.6110 hc        1 16V      0.052700
     28 H8         -0.2280    0.9200   -6.7840 hc        1 16V      0.052700
     29 H9         -2.6800   -0.4640   -5.4770 hc        1 16V      0.050200
     30 H10        -2.4910    1.3070   -5.8030 hc        1 16V      0.050200
     31 H11        -1.2980   -2.5680   -8.4450 hc        1 16V      0.054033
     32 H12        -2.1950   -2.5280   -6.8680 hc        1 16V      0.054033
     33 H13        -2.9870   -3.2330   -8.3460 hc        1 16V      0.054033
     34 H14        -3.6780   -1.3510  -10.2430 hn        1 16V      0.311700
     35 H15        -2.6580    2.9750   -7.7340 hc        1 16V      0.048367
     36 H16        -4.2840    2.5560   -7.0440 hc        1 16V      0.048367
     37 H17        -4.1430    3.0940   -8.7730 hc        1 16V      0.048367
@<TRIPOS>BOND
     1    1    2 1   
     2    2    3 1   
     3    2    4 1   
     4    4    5 ar  
     5    4    6 ar  
     6    5   10 ar  
     7    5   22 1   
     8    6    7 ar  
     9    6   23 1   
    10    7    8 ar  
    11    7   24 1   
    12    8    9 1   
    13    8   10 ar  
    14   10   11 1   
    15   11   12 1   
    16   12   13 1   
    17   12   25 1   
    18   12   26 1   
    19   13   14 1   
    20   13   27 1   
    21   13   28 1   
    22   14   15 1   
    23   14   29 1   
    24   14   30 1   
    25   15   16 2   
    26   15   20 1   
    27   16   17 1   
    28   16   18 1   
    29   17   31 1   
    30   17   32 1   
    31   17   33 1   
    32   18   19 1   
    33   18   34 1   
    34   19   20 2   
    35   20   21 1   
    36   21   35 1   
    37   21   36 1   
    38   21   37 1   
@<TRIPOS>SUBSTRUCTURE
     1 16V         1 TEMP              0 ****  ****    0 ROOT
