@<TRIPOS>MOLECULE
molecule
   43    46     1     0     0
SMALL
bcc


@<TRIPOS>ATOM
      1 C1           0.0000     0.0000     0.0000 ca         1 16W      -0.153000
      2 C2           1.3860     0.0000     0.0000 ca         1 16W       0.151100
      3 C3           2.0790     0.0000     1.2030 ca         1 16W      -0.227000
      4 C7           4.9020     2.8600    -5.2620 ca         1 16W       0.752900
      5 C8           4.8330     0.6850    -4.5150 ca         1 16W       0.524800
      6 C9           4.2800     1.1360    -3.3000 ca         1 16W      -0.520500
      7 C10          4.0710     2.5180    -3.1350 ca         1 16W       0.793200
      8 C11          4.0710    -0.0030    -2.4930 cc         1 16W       0.388900
      9 C12          3.4940    -0.0020    -1.1010 c3         1 16W       0.146100
     10 C13          7.1760    -3.3160    -5.9490 c3         1 16W       0.139400
     11 C14          4.9690    -3.5660    -6.8570 c3         1 16W       0.139400
     12 C15          4.3870    -2.5830    -5.8380 c3         1 16W      -0.133900
     13 C16          5.4650    -1.5700    -5.4430 c3         1 16W       0.092000
     14 N2           5.1250     1.5790    -5.4590 nb         1 16W      -0.800000
     15 N4           4.3920     3.3300    -4.1380 nb         1 16W      -0.827000
     16 N5           4.9390    -0.6710    -4.4130 na         1 16W      -0.016800
     17 N1           4.4610    -1.0550    -3.1550 nd         1 16W      -0.482100
     18 O2           2.0670    -0.0010    -1.1760 os         1 16W      -0.314900
     19 O1           6.1150    -4.2090    -6.2930 os         1 16W      -0.419600
     20 C17          6.6810    -2.3220    -4.8940 c3         1 16W      -0.133900
     21 C4           1.3860     0.0000     2.3970 ca         1 16W      -0.079000
     22 C5           0.0030     0.0010     2.3960 ca         1 16W      -0.160000
     23 C6          -0.6900     0.0010     1.1990 ca         1 16W       0.064400
     24 Cl1         -2.4250     0.0090     1.2010 cl         1 16W      -0.099400
     25 H1          -0.5420     0.0000    -0.9380 ha         1 16W       0.160000
     26 H2           3.1620    -0.0000     1.2040 ha         1 16W       0.136000
     27 H3           5.1490     3.5580    -6.0530 h5         1 16W       0.062100
     28 H4           3.8270    -0.8860    -0.5710 h1         1 16W       0.048700
     29 H5           3.8280     0.8830    -0.5730 h1         1 16W       0.048700
     30 H6           8.0070    -3.8830    -5.5470 h1         1 16W       0.050950
     31 H7           7.4930    -2.7760    -6.8320 h1         1 16W       0.050950
     32 H8           5.2620    -3.0280    -7.7500 h1         1 16W       0.050950
     33 H9           4.2240    -4.3110    -7.1050 h1         1 16W       0.050950
     34 H10          3.5460    -2.0610    -6.2800 hc         1 16W       0.067950
     35 H11          4.0620    -3.1250    -4.9580 hc         1 16W       0.067950
     36 H12          5.7590    -0.9970    -6.3150 h1         1 16W       0.088700
     37 H13          2.8500     3.7490    -2.0020 hn         1 16W       0.445300
     38 H14          3.8480     2.6720    -1.0820 hn         1 16W       0.445300
     39 H15          7.4700    -1.6160    -4.6650 hc         1 16W       0.067950
     40 H16          6.3970    -2.8600    -3.9970 hc         1 16W       0.067950
     41 H17          1.9260     0.0000     3.3360 ha         1 16W       0.138000
     42 H18         -0.5380     0.0010     3.3350 ha         1 16W       0.146000
     43 N3           3.5330     3.0180    -1.9660 nv         1 16W      -1.019500
@<TRIPOS>BOND
     1    43     7 1
     2    15     4 ar
     3    15     7 ar
     4     4    14 ar
     5     7     6 ar
     6    14     5 ar
     7     6     5 ar
     8     6     8 1
     9     3    21 ar
    10     3     2 ar
    11     5    16 1
    12    21    22 ar
    13    18     2 1
    14    18     9 1
    15     2     1 ar
    16     9     8 1
    17     8    17 2
    18    22    23 ar
    19     1    23 ar
    20    23    24 1
    21    16    17 1
    22    16    13 1
    23    13    20 1
    24    13    12 1
    25    20    10 1
    26    12    11 1
    27    10    19 1
    28    11    19 1
    29     1    25 1
    30     3    26 1
    31     4    27 1
    32     9    28 1
    33     9    29 1
    34    10    30 1
    35    10    31 1
    36    11    32 1
    37    11    33 1
    38    12    34 1
    39    12    35 1
    40    13    36 1
    41    43    37 1
    42    43    38 1
    43    20    39 1
    44    20    40 1
    45    21    41 1
    46    22    42 1
@<TRIPOS>SUBSTRUCTURE
     1 16W         1 TEMP              0 ****  ****    0 ROOT
