@<TRIPOS>MOLECULE
16W
   43    46     1     0     0
SMALL
bcc


@<TRIPOS>ATOM
      1 C1           0.0720    -0.4680     0.0830 ca         1 16W      -0.194000
      2 C2           1.4140    -0.0820     0.0090 ca         1 16W       0.124100
      3 C3           2.1260     0.3020     1.1610 ca         1 16W      -0.151000
      4 C7           5.7530    -1.0950    -5.2100 ca         1 16W       0.694900
      5 C8           4.0220     0.3520    -5.0110 ca         1 16W       0.471800
      6 C9           3.5230    -0.3940    -3.8670 ca         1 16W      -0.480500
      7 C10          4.2760    -1.5370    -3.4540 ca         1 16W       0.754200
      8 C11          2.3260     0.3160    -3.4680 cc         1 16W       0.362900
      9 C12          1.3880    -0.0570    -2.3750 c3         1 16W       0.119100
     10 C13          2.2340     3.3620    -8.3500 c3         1 16W       0.125900
     11 C14          3.4070     4.8190    -6.8940 c3         1 16W       0.125900
     12 C15          3.2730     3.8580    -5.7250 c3         1 16W      -0.126900
     13 C16          3.2090     2.4190    -6.2600 c3         1 16W       0.080000
     14 N2           5.1500     0.0080    -5.7070 nb         1 16W      -0.741000
     15 N4           5.4130    -1.8750    -4.1480 nb         1 16W      -0.796000
     16 N5           3.1230     1.4230    -5.1920 na         1 16W       0.003200
     17 N1           2.1350     1.3860    -4.2800 nd         1 16W      -0.499100
     18 O2           2.1550    -0.0920    -1.1590 os         1 16W      -0.342900
     19 O1           2.3400     4.6800    -7.8250 os         1 16W      -0.411600
     20 C17          2.0420     2.3250    -7.2550 c3         1 16W      -0.126900
     21 C4           1.4760     0.2890     2.3900 ca         1 16W      -0.093000
     22 C5           0.1350    -0.0900     2.4870 ca         1 16W      -0.151000
     23 C6          -0.5560    -0.4640     1.3330 ca         1 16W       0.049400
     24 Cl1         -2.1880    -0.9270     1.4410 cl         1 16W      -0.087400
     25 H1          -0.4850    -0.7700    -0.8150 ha         1 16W       0.154000
     26 H2           3.1780     0.6050     1.0730 ha         1 16W       0.154000
     27 H3           6.6760    -1.4140    -5.7430 h5         1 16W       0.053100
     28 H4           0.5450     0.6780    -2.2770 h1         1 16W       0.065200
     29 H5           0.9800    -1.0880    -2.5650 h1         1 16W       0.065200
     30 H6           3.1470     3.1260    -8.9590 h1         1 16W       0.052200
     31 H7           1.3330     3.4070    -9.0180 h1         1 16W       0.052200
     32 H8           3.3260     5.8830    -6.5450 h1         1 16W       0.052200
     33 H9           4.3870     4.6660    -7.4210 h1         1 16W       0.052200
     34 H10          2.3420     4.0950    -5.1490 hc         1 16W       0.068450
     35 H11          4.1500     3.9830    -5.0400 hc         1 16W       0.068450
     36 H12          4.1720     2.1990    -6.8140 h1         1 16W       0.089700
     37 H13          3.2040    -1.8960    -1.7670 hn         1 16W       0.436800
     38 H14          4.4440    -3.0190    -2.0500 hn         1 16W       0.436800
     39 H15          1.0720     2.5130    -6.7260 hc         1 16W       0.068450
     40 H16          1.9990     1.3060    -7.7150 hc         1 16W       0.068450
     41 H17          2.0230     0.5870     3.2980 ha         1 16W       0.142000
     42 H18         -0.3690    -0.0910     3.4650 ha         1 16W       0.151000
     43 N3           3.8350    -2.3200    -2.4080 nv         1 16W      -0.940500
@<TRIPOS>BOND
     1     1     2 ar  
     2     1    23 ar  
     3     1    25 1   
     4     2     3 ar  
     5     2    18 1   
     6     3    21 ar  
     7     3    26 1   
     8     4    14 ar  
     9     4    15 ar  
    10     4    27 1   
    11     5     6 ar  
    12     5    14 ar  
    13     5    16 1   
    14     6     7 ar  
    15     6     8 1   
    16     7    15 ar  
    17     7    43 1   
    18     8     9 1   
    19     8    17 2   
    20     9    18 1   
    21     9    28 1   
    22     9    29 1   
    23    10    19 1   
    24    10    20 1   
    25    10    30 1   
    26    10    31 1   
    27    11    12 1   
    28    11    19 1   
    29    11    32 1   
    30    11    33 1   
    31    12    13 1   
    32    12    34 1   
    33    12    35 1   
    34    13    16 1   
    35    13    20 1   
    36    13    36 1   
    37    16    17 1   
    38    20    39 1   
    39    20    40 1   
    40    21    22 ar  
    41    21    41 1   
    42    22    23 ar  
    43    22    42 1   
    44    23    24 1   
    45    37    43 1   
    46    38    43 1   
@<TRIPOS>SUBSTRUCTURE
     1 16W         1 TEMP              0 ****  ****    0 ROOT
