@<TRIPOS>MOLECULE
16Y
   50    49     1     0     0
SMALL
bcc


@<TRIPOS>ATOM
      1 O19         0.2850    1.0020    0.1230 o         1 16Y     -0.853800
      2 C17         1.1970    0.1280    0.0390 c         1 16Y      0.907600
      3 O18         1.5420   -0.6220    0.9970 o         1 16Y     -0.853800
      4 C16         1.9510   -0.0210   -1.2950 c3        1 16Y     -0.193400
      5 C15         0.9970   -0.0540   -2.4630 c3        1 16Y     -0.065400
      6 C14         1.7270   -0.0150   -3.7900 c3        1 16Y     -0.078400
      7 C13         0.7630   -0.0670   -4.9560 c3        1 16Y     -0.078400
      8 C12         1.4920   -0.0190   -6.2820 c3        1 16Y     -0.078400
      9 C11         0.5270   -0.0720   -7.4460 c3        1 16Y     -0.079400
     10 C10         1.2580   -0.0250   -8.7710 c3        1 16Y     -0.078400
     11 C1          0.2930   -0.0770   -9.9360 c3        1 16Y     -0.079400
     12 C2          1.0260   -0.0330  -11.2600 c3        1 16Y     -0.078400
     13 C3          0.0620   -0.0840  -12.4260 c3        1 16Y     -0.079400
     14 C4          0.7980   -0.0410  -13.7480 c3        1 16Y     -0.079400
     15 C5         -0.1640   -0.0910  -14.9150 c3        1 16Y     -0.078400
     16 C6          0.5740   -0.0490  -16.2360 c3        1 16Y     -0.079400
     17 C7         -0.3880   -0.1000  -17.4020 c3        1 16Y     -0.083400
     18 C8          0.3680   -0.0570  -18.7190 c3        1 16Y      0.131400
     19 O9         -0.5970   -0.1080  -19.7580 oh        1 16Y     -0.602800
     20 H2          2.5680   -0.9540   -1.2690 hc        1 16Y      0.018700
     21 H3          2.6470    0.8500   -1.3930 hc        1 16Y      0.018700
     22 H4          0.3700   -0.9820   -2.4090 hc        1 16Y      0.043700
     23 H5          0.2980    0.8220   -2.3810 hc        1 16Y      0.043700
     24 H6          2.4390   -0.8790   -3.8530 hc        1 16Y      0.025700
     25 H7          0.0490    0.7960   -4.8880 hc        1 16Y      0.036700
     26 H8          2.2080   -0.8810   -6.3470 hc        1 16Y      0.034200
     27 H9          2.1020    0.9200   -6.3410 hc        1 16Y      0.034200
     28 H10        -0.0840   -1.0110   -7.3860 hc        1 16Y      0.037700
     29 H11        -0.1880    0.7910   -7.3800 hc        1 16Y      0.037700
     30 H12         1.9720   -0.8880   -8.8360 hc        1 16Y      0.036700
     31 H13         1.8690    0.9140   -8.8300 hc        1 16Y      0.036700
     32 H14        -0.4200    0.7870   -9.8720 hc        1 16Y      0.038700
     33 H15        -0.3190   -1.0150   -9.8760 hc        1 16Y      0.038700
     34 H16         1.6380    0.9050  -11.3190 hc        1 16Y      0.037700
     35 H17         1.7390   -0.8970  -11.3230 hc        1 16Y      0.037700
     36 H18        -0.5510   -1.0210  -12.3660 hc        1 16Y      0.039700
     37 H19        -0.6500    0.7810  -12.3630 hc        1 16Y      0.039700
     38 H20         1.4110    0.8970  -13.8060 hc        1 16Y      0.038700
     39 H21         1.5100   -0.9060  -13.8100 hc        1 16Y      0.038700
     40 H22        -0.8760    0.7740  -14.8550 hc        1 16Y      0.041700
     41 H23        -0.7780   -1.0280  -14.8570 hc        1 16Y      0.041700
     42 H24         1.2860   -0.9150  -16.2960 hc        1 16Y      0.038700
     43 H25         1.1880    0.8880  -16.2930 hc        1 16Y      0.038700
     44 H26        -1.1000    0.7650  -17.3570 hc        1 16Y      0.054700
     45 H27        -1.0020   -1.0360  -17.3590 hc        1 16Y      0.054700
     46 H28         0.9670    0.8900  -18.8000 h1        1 16Y      0.018700
     47 H29         1.0660   -0.9340  -18.8020 h1        1 16Y      0.018700
     48 H30        -0.1070   -0.0800  -20.5880 ho        1 16Y      0.396000
     49 H31         2.3410    0.9220   -3.8530 hc        1 16Y      0.025700
     50 H32         0.1530   -1.0060   -4.8960 hc        1 16Y      0.036700
@<TRIPOS>BOND
     1    1    2 1   
     2    2    3 1   
     3    2    4 1   
     4    4    5 1   
     5    4   20 1   
     6    4   21 1   
     7    5    6 1   
     8    5   22 1   
     9    5   23 1   
    10    6    7 1   
    11    6   24 1   
    12    6   49 1   
    13    7    8 1   
    14    7   25 1   
    15    7   50 1   
    16    8    9 1   
    17    8   26 1   
    18    8   27 1   
    19    9   10 1   
    20    9   28 1   
    21    9   29 1   
    22   10   11 1   
    23   10   30 1   
    24   10   31 1   
    25   11   12 1   
    26   11   32 1   
    27   11   33 1   
    28   12   13 1   
    29   12   34 1   
    30   12   35 1   
    31   13   14 1   
    32   13   36 1   
    33   13   37 1   
    34   14   15 1   
    35   14   38 1   
    36   14   39 1   
    37   15   16 1   
    38   15   40 1   
    39   15   41 1   
    40   16   17 1   
    41   16   42 1   
    42   16   43 1   
    43   17   18 1   
    44   17   44 1   
    45   17   45 1   
    46   18   19 1   
    47   18   46 1   
    48   18   47 1   
    49   19   48 1   
@<TRIPOS>SUBSTRUCTURE
     1 16Y         1 TEMP              0 ****  ****    0 ROOT
