@<TRIPOS>MOLECULE
16Y
   50    49     1     0     0
SMALL
bcc


@<TRIPOS>ATOM
      1 O19         -1.1010    -3.2630    -0.0750 o          1 16Y      -0.853800
      2 C17         -0.0140    -3.8940    -0.2240 c          1 16Y       0.907600
      3 O18          0.1450    -5.1050     0.1030 o          1 16Y      -0.853800
      4 C16          1.1960    -3.1470    -0.8140 c3         1 16Y      -0.194400
      5 C15          0.8030    -2.3350    -2.0240 c3         1 16Y      -0.067400
      6 C14          1.8980    -1.4020    -2.4990 c3         1 16Y      -0.074400
      7 C13          3.0370    -2.1440    -3.1650 c3         1 16Y      -0.080400
      8 C12          4.1250    -1.1970    -3.6240 c3         1 16Y      -0.078400
      9 C11          5.2630    -1.9450    -4.2850 c3         1 16Y      -0.079400
     10 C10          6.3570    -1.0010    -4.7350 c3         1 16Y      -0.078400
     11 C1           7.4970    -1.7540    -5.3870 c3         1 16Y      -0.079400
     12 C2           8.6010    -0.8370    -5.8720 c3         1 16Y      -0.076400
     13 C3           9.4460    -0.3000    -4.7360 c3         1 16Y      -0.079400
     14 C4          10.6210     0.5200    -5.2230 c3         1 16Y      -0.077400
     15 C5          10.2060     1.8890    -5.7210 c3         1 16Y      -0.079400
     16 C6          11.4080     2.6960    -6.1660 c3         1 16Y      -0.078400
     17 C7          10.9940     4.0580    -6.6740 c3         1 16Y      -0.084400
     18 C8          12.2110     4.8570    -7.1060 c3         1 16Y       0.131400
     19 O9          11.7440     6.1110    -7.5810 oh         1 16Y      -0.601800
     20 H2           1.9920    -3.8880    -1.0790 hc         1 16Y       0.018700
     21 H3           1.6030    -2.4750    -0.0170 hc         1 16Y       0.018700
     22 H4           0.5120    -3.0260    -2.8580 hc         1 16Y       0.045200
     23 H5          -0.1090    -1.7340    -1.7600 hc         1 16Y       0.045200
     24 H6           2.2940    -0.8150    -1.6290 hc         1 16Y       0.020200
     25 H7           2.6450    -2.7220    -4.0430 hc         1 16Y       0.042700
     26 H8           4.5150    -0.6200    -2.7440 hc         1 16Y       0.032200
     27 H9           3.6960    -0.4510    -4.3440 hc         1 16Y       0.032200
     28 H10          4.8730    -2.5170    -5.1680 hc         1 16Y       0.039200
     29 H11          5.6850    -2.6950    -3.5660 hc         1 16Y       0.039200
     30 H12          6.7400    -0.4240    -3.8530 hc         1 16Y       0.036200
     31 H13          5.9360    -0.2550    -5.4590 hc         1 16Y       0.036200
     32 H14          7.0990    -2.3350    -6.2610 hc         1 16Y       0.038700
     33 H15          7.9170    -2.4980    -4.6600 hc         1 16Y       0.038700
     34 H16          9.2590    -1.4040    -6.5820 hc         1 16Y       0.034700
     35 H17          8.1540     0.0180    -6.4450 hc         1 16Y       0.034700
     36 H18          8.8080     0.3230    -4.0540 hc         1 16Y       0.043200
     37 H19          9.8340    -1.1620    -4.1290 hc         1 16Y       0.043200
     38 H20         11.3520     0.6450    -4.3810 hc         1 16Y       0.034700
     39 H21         11.1520    -0.0310    -6.0440 hc         1 16Y       0.034700
     40 H22          9.4900     1.7780    -6.5780 hc         1 16Y       0.044200
     41 H23          9.6640     2.4380    -4.9070 hc         1 16Y       0.044200
     42 H24         12.1190     2.8130    -5.3060 hc         1 16Y       0.036700
     43 H25         11.9540     2.1410    -6.9740 hc         1 16Y       0.036700
     44 H26         10.4460     4.6220    -5.8740 hc         1 16Y       0.056200
     45 H27         10.2930     3.9530    -7.5430 hc         1 16Y       0.056200
     46 H28         12.7650     4.3220    -7.9240 h1         1 16Y       0.017700
     47 H29         12.9090     5.0130    -6.2400 h1         1 16Y       0.017700
     48 H30         12.5230     6.6120    -7.8430 ho         1 16Y       0.395000
     49 H31          1.4670    -0.6640    -3.2270 hc         1 16Y       0.020200
     50 H32          3.4640    -2.8910    -2.4440 hc         1 16Y       0.042700
@<TRIPOS>BOND
     1     1     2 1   
     2     2     3 1   
     3     2     4 1   
     4     4     5 1   
     5     4    20 1   
     6     4    21 1   
     7     5     6 1   
     8     5    22 1   
     9     5    23 1   
    10     6     7 1   
    11     6    24 1   
    12     6    49 1   
    13     7     8 1   
    14     7    25 1   
    15     7    50 1   
    16     8     9 1   
    17     8    26 1   
    18     8    27 1   
    19     9    10 1   
    20     9    28 1   
    21     9    29 1   
    22    10    11 1   
    23    10    30 1   
    24    10    31 1   
    25    11    12 1   
    26    11    32 1   
    27    11    33 1   
    28    12    13 1   
    29    12    34 1   
    30    12    35 1   
    31    13    14 1   
    32    13    36 1   
    33    13    37 1   
    34    14    15 1   
    35    14    38 1   
    36    14    39 1   
    37    15    16 1   
    38    15    40 1   
    39    15    41 1   
    40    16    17 1   
    41    16    42 1   
    42    16    43 1   
    43    17    18 1   
    44    17    44 1   
    45    17    45 1   
    46    18    19 1   
    47    18    46 1   
    48    18    47 1   
    49    19    48 1   
@<TRIPOS>SUBSTRUCTURE
     1 16Y         1 TEMP              0 ****  ****    0 ROOT
