@<TRIPOS>MOLECULE
molecule
   50    49     1     0     0
SMALL
bcc


@<TRIPOS>ATOM
      1 O19          0.0000     0.0000     0.0000 o          1 16Y      -0.858300
      2 C17          1.2080     0.0000     0.0000 c          1 16Y       0.890600
      3 O18          1.8790     0.0000     1.1630 o          1 16Y      -0.858300
      4 C16          1.9610    -0.0060    -1.3040 c3         1 16Y      -0.182400
      5 C15          0.9680    -0.0110    -2.4680 c3         1 16Y      -0.063400
      6 C14          1.7330    -0.0160    -3.7920 c3         1 16Y      -0.088400
      7 C13          0.7390    -0.0210    -4.9560 c3         1 16Y      -0.081400
      8 C12          1.5040    -0.0270    -6.2810 c3         1 16Y      -0.083400
      9 C11          0.5110    -0.0330    -7.4440 c3         1 16Y      -0.082400
     10 C10          1.2750    -0.0380    -8.7690 c3         1 16Y      -0.082400
     11 C1           0.2820    -0.0440    -9.9310 c3         1 16Y      -0.082400
     12 C2           1.0470    -0.0490   -11.2570 c3         1 16Y      -0.082400
     13 C3           0.0530    -0.0540   -12.4200 c3         1 16Y      -0.082400
     14 C4           0.8180    -0.0600   -13.7450 c3         1 16Y      -0.082400
     15 C5          -0.1760    -0.0650   -14.9080 c3         1 16Y      -0.080400
     16 C6           0.5890    -0.0710   -16.2320 c3         1 16Y      -0.082400
     17 C7          -0.4040    -0.0770   -17.3960 c3         1 16Y      -0.081400
     18 C8           0.3610    -0.0820   -18.7200 c3         1 16Y       0.139400
     19 O9          -0.5670    -0.0870   -19.8060 oh         1 16Y      -0.613800
     20 H2           2.5840     0.8790    -1.3650 hc         1 16Y       0.026700
     21 H3           2.5840    -0.8900    -1.3580 hc         1 16Y       0.026700
     22 H4           0.3450    -0.8950    -2.4070 hc         1 16Y       0.044700
     23 H5           0.3450     0.8740    -2.4150 hc         1 16Y       0.044700
     24 H6           2.3560    -0.9010    -3.8460 hc         1 16Y       0.028700
     25 H7           0.1160    -0.9060    -4.8950 hc         1 16Y       0.038700
     26 H8           2.1270     0.8580    -6.3420 hc         1 16Y       0.035700
     27 H9           2.1280    -0.9110    -6.3340 hc         1 16Y       0.035700
     28 H10         -0.1130     0.8510    -7.3900 hc         1 16Y       0.039700
     29 H11         -0.1110    -0.9180    -7.3820 hc         1 16Y       0.039700
     30 H12          1.8970     0.8470    -8.8300 hc         1 16Y       0.038700
     31 H13          1.8990    -0.9220    -8.8230 hc         1 16Y       0.038700
     32 H14         -0.3400    -0.9280    -9.8700 hc         1 16Y       0.040700
     33 H15         -0.3410     0.8410    -9.8780 hc         1 16Y       0.040700
     34 H16          1.6700     0.8350   -11.3180 hc         1 16Y       0.039700
     35 H17          1.6700    -0.9340   -11.3100 hc         1 16Y       0.039700
     36 H18         -0.5700     0.8300   -12.3670 hc         1 16Y       0.040700
     37 H19         -0.5700    -0.9390   -12.3590 hc         1 16Y       0.040700
     38 H20          1.4410    -0.9450   -13.7980 hc         1 16Y       0.040200
     39 H21          1.4410     0.8240   -13.8060 hc         1 16Y       0.040200
     40 H22         -0.7990     0.8200   -14.8550 hc         1 16Y       0.042700
     41 H23         -0.7990    -0.9490   -14.8470 hc         1 16Y       0.042700
     42 H24          1.2120     0.8140   -16.2930 hc         1 16Y       0.040700
     43 H25          1.2130    -0.9550   -16.2850 hc         1 16Y       0.040700
     44 H26         -1.0260    -0.9620   -17.3350 hc         1 16Y       0.053700
     45 H27         -1.0280     0.8070   -17.3420 hc         1 16Y       0.053700
     46 H28          0.9850    -0.9660   -18.7740 h1         1 16Y       0.017700
     47 H29          0.9830     0.8040   -18.7810 h1         1 16Y       0.017700
     48 H30         -0.0960    -0.0900   -20.6230 ho         1 16Y       0.399000
     49 H31          2.3560     0.8680    -3.8530 hc         1 16Y       0.028700
     50 H32          0.1160     0.8630    -4.9020 hc         1 16Y       0.038700
@<TRIPOS>BOND
     1    11    12 1   
     2    11    10 1   
     3    12    13 1   
     4     8     9 1   
     5     8     7 1   
     6    10     9 1   
     7     7     6 1   
     8     6     5 1   
     9    13    14 1   
    10    14    15 1   
    11     5     4 1   
    12    15    16 1   
    13     4     2 1   
    14     1     2 1   
    15     2     3 1   
    16    16    17 1   
    17    17    18 1   
    18    18    19 1   
    19     4    20 1   
    20     4    21 1   
    21     5    22 1   
    22     5    23 1   
    23     6    24 1   
    24     7    25 1   
    25     8    26 1   
    26     8    27 1   
    27     9    28 1   
    28     9    29 1   
    29    10    30 1   
    30    10    31 1   
    31    11    32 1   
    32    11    33 1   
    33    12    34 1   
    34    12    35 1   
    35    13    36 1   
    36    13    37 1   
    37    14    38 1   
    38    14    39 1   
    39    15    40 1   
    40    15    41 1   
    41    16    42 1   
    42    16    43 1   
    43    17    44 1   
    44    17    45 1   
    45    18    46 1   
    46    18    47 1   
    47    19    48 1   
    48     6    49 1   
    49     7    50 1   
@<TRIPOS>SUBSTRUCTURE
     1 16Y         1 TEMP              0 ****  ****    0 ROOT
