@<TRIPOS>MOLECULE
16Z
   36    37     1     0     0
SMALL
bcc


@<TRIPOS>ATOM
      1 CAQ         -0.0820     0.2780     0.1830 c3         1 16Z       0.113700
      2 OAP          1.3290     0.1620     0.0390 os         1 16Z      -0.325900
      3 CAM          2.0520     0.0320     1.2080 ca         1 16Z       0.128100
      4 CAN          3.4450    -0.0740     1.0330 ca         1 16Z      -0.181000
      5 CAO          4.2620    -0.2110     2.1480 ca         1 16Z      -0.086500
      6 CAL          1.4910     0.0010     2.4900 ca         1 16Z      -0.181000
      7 CAK          2.3300    -0.1340     3.5950 ca         1 16Z      -0.086500
      8 CAJ          3.7140    -0.2420     3.4380 ca         1 16Z      -0.141300
      9 CAE          4.6280    -0.3670     4.6270 c3         1 16Z       0.224800
     10 CAG          4.5000     0.9000     5.5250 c3         1 16Z       0.102100
     11 OAD          5.7850     1.4890     5.5950 oh         1 16Z      -0.594800
     12 CAA          4.0380     0.3970     6.9140 c3         1 16Z       0.103100
     13 OAC          5.0180     0.6730     7.8890 oh         1 16Z      -0.595800
     14 CAF          3.7510    -1.1180     6.7270 c3         1 16Z       0.142500
     15 CAB          4.1780    -1.9240     7.9450 c3         1 16Z      -0.083100
     16 NAH          4.4350    -1.5380     5.4940 n3         1 16Z      -0.728600
     17 CAI          3.8550    -2.6940     4.8630 c3         1 16Z       0.162100
     18 H1          -0.5060    -0.6370     0.6640 h1         1 16Z       0.044700
     19 H2          -0.3450     1.1890     0.7730 h1         1 16Z       0.044700
     20 H3          -0.4440     0.3730    -0.8720 h1         1 16Z       0.044700
     21 H4           3.8660    -0.0450     0.0180 ha         1 16Z       0.144500
     22 H5           5.3520    -0.2910     2.0140 ha         1 16Z       0.135500
     23 H6           0.4060     0.0830     2.6370 ha         1 16Z       0.144500
     24 H7           1.8930    -0.1560     4.6060 ha         1 16Z       0.135500
     25 H8           5.6970    -0.4360     4.2590 h1         1 16Z       0.092700
     26 H9           3.7690     1.6340     5.0950 h1         1 16Z       0.056700
     27 H10          5.7510     2.1520     6.2990 ho         1 16Z       0.415000
     28 H11          3.1220     0.9340     7.2740 h1         1 16Z       0.081700
     29 H12          5.8200     0.1950     7.6350 ho         1 16Z       0.421000
     30 H13          2.6280    -1.2340     6.6170 h1         1 16Z       0.028700
     31 H14          3.7550    -1.4420     8.8600 hc         1 16Z       0.044033
     32 H15          5.2900    -1.9550     8.0450 hc         1 16Z       0.044033
     33 H16          3.8000    -2.9710     7.8720 hc         1 16Z       0.044033
     34 H18          2.7860    -2.5480     4.5440 h1         1 16Z       0.035700
     35 H19          3.8970    -3.5480     5.5900 h1         1 16Z       0.035700
     36 H20          4.4640    -2.9520     3.9580 h1         1 16Z       0.035700
@<TRIPOS>BOND
     1     1     2 1   
     2     1    18 1   
     3     1    19 1   
     4     1    20 1   
     5     2     3 1   
     6     3     4 ar  
     7     3     6 ar  
     8     4     5 ar  
     9     4    21 1   
    10     5     8 ar  
    11     5    22 1   
    12     6     7 ar  
    13     6    23 1   
    14     7     8 ar  
    15     7    24 1   
    16     8     9 1   
    17     9    10 1   
    18     9    16 1   
    19     9    25 1   
    20    10    11 1   
    21    10    12 1   
    22    10    26 1   
    23    11    27 1   
    24    12    13 1   
    25    12    14 1   
    26    12    28 1   
    27    13    29 1   
    28    14    15 1   
    29    14    16 1   
    30    14    30 1   
    31    15    31 1   
    32    15    32 1   
    33    15    33 1   
    34    16    17 1   
    35    17    34 1   
    36    17    35 1   
    37    17    36 1   
@<TRIPOS>SUBSTRUCTURE
     1 16Z         1 TEMP              0 ****  ****    0 ROOT
