@<TRIPOS>MOLECULE
16Z
   36    37     1     0     0
SMALL
bcc


@<TRIPOS>ATOM
      1 CAQ          0.0000     0.0000     0.0000 c3         1 16Z       0.244700
      2 OAP          1.4280     0.0000     0.0000 os         1 16Z      -0.306900
      3 CAM          2.0460     0.0000     1.2110 ca         1 16Z       0.152100
      4 CAN          1.2910    -0.0060     2.3750 ca         1 16Z      -0.176000
      5 CAO          1.9210    -0.0110     3.6050 ca         1 16Z      -0.055000
      6 CAL          3.4310    -0.0010     1.2840 ca         1 16Z      -0.176000
      7 CAK          4.0560    -0.0000     2.5160 ca         1 16Z      -0.055000
      8 CAJ          3.3020    -0.0110     3.6750 ca         1 16Z      -0.149300
      9 CAE          3.9860    -0.0180     5.0180 c3         1 16Z       0.184800
     10 CAG          3.4120     1.1070     5.9050 c3         1 16Z       0.141100
     11 OAD          4.2760     2.2450     5.9020 oh         1 16Z      -0.557800
     12 CAA          3.3650     0.4530     7.3120 c3         1 16Z       0.164100
     13 OAC          4.6410     0.5240     7.9510 oh         1 16Z      -0.545800
     14 CAF          2.9990    -1.0120     6.9630 c3         1 16Z       0.111500
     15 CAB          3.4640    -1.9550     8.0750 c3         1 16Z       0.016900
     16 NAH          3.7260    -1.2940     5.7080 n3         1 16Z      -0.519600
     17 CAI          2.9610    -2.2090     4.8510 c3         1 16Z       0.151100
     18 H1          -0.3610     0.0030    -1.0210 h1         1 16Z      -0.002967
     19 H2          -0.3610    -0.8860     0.5080 h1         1 16Z      -0.002967
     20 H3          -0.3610     0.8830     0.5130 h1         1 16Z      -0.002967
     21 H4           0.2090    -0.0050     2.3190 ha         1 16Z       0.119000
     22 H5           1.3320    -0.0170     4.5140 ha         1 16Z       0.110000
     23 H6           4.0220     0.0080     0.3760 ha         1 16Z       0.119000
     24 H7           5.1380    -0.0010     2.5740 ha         1 16Z       0.110000
     25 H8           5.0530     0.1220     4.8950 h1         1 16Z       0.065700
     26 H9           2.4140     1.3760     5.5780 h1         1 16Z       0.015700
     27 H10          3.7620     3.0300     5.8180 ho         1 16Z       0.382000
     28 H11          2.5930     0.9070     7.9210 h1         1 16Z       0.001700
     29 H12          4.5980     1.1300     8.6720 ho         1 16Z       0.384000
     30 H13          1.9310    -1.1030     6.8060 h1         1 16Z       0.015700
     31 H14          4.5390    -2.0720     8.0230 hc         1 16Z       0.009033
     32 H15          3.1920    -1.5400     9.0380 hc         1 16Z       0.009033
     33 H16          2.9890    -2.9210     7.9510 hc         1 16Z       0.009033
     34 H18          2.9960    -3.2090     5.2670 h1         1 16Z       0.011700
     35 H19          3.3910    -2.2170     3.8570 h1         1 16Z       0.011700
     36 H20          1.9310    -1.8770     4.7960 h1         1 16Z       0.011700
@<TRIPOS>BOND
     1     1     2 1   
     2     1    18 1   
     3     1    19 1   
     4     1    20 1   
     5     2     3 1   
     6     3     4 ar  
     7     3     6 ar  
     8     4     5 ar  
     9     4    21 1   
    10     5     8 ar  
    11     5    22 1   
    12     6     7 ar  
    13     6    23 1   
    14     7     8 ar  
    15     7    24 1   
    16     8     9 1   
    17     9    10 1   
    18     9    16 1   
    19     9    25 1   
    20    10    11 1   
    21    10    12 1   
    22    10    26 1   
    23    11    27 1   
    24    12    13 1   
    25    12    14 1   
    26    12    28 1   
    27    13    29 1   
    28    14    15 1   
    29    14    16 1   
    30    14    30 1   
    31    15    31 1   
    32    15    32 1   
    33    15    33 1   
    34    16    17 1   
    35    17    34 1   
    36    17    35 1   
    37    17    36 1   
@<TRIPOS>SUBSTRUCTURE
     1 16Z         1 TEMP              0 ****  ****    0 ROOT
