@<TRIPOS>MOLECULE
molecule
   36    37     1     0     0
SMALL
bcc


@<TRIPOS>ATOM
      1 CAQ          0.0000     0.0000     0.0000 c3         1 16Z       0.128700
      2 OAP          1.4280     0.0000     0.0000 os         1 16Z      -0.328900
      3 CAM          2.0460     0.0000     1.2110 ca         1 16Z       0.142100
      4 CAN          1.2910    -0.0060     2.3750 ca         1 16Z      -0.190000
      5 CAO          1.9210    -0.0110     3.6050 ca         1 16Z      -0.085500
      6 CAL          3.4310    -0.0010     1.2840 ca         1 16Z      -0.190000
      7 CAK          4.0560    -0.0000     2.5160 ca         1 16Z      -0.085500
      8 CAJ          3.3020    -0.0110     3.6750 ca         1 16Z      -0.143300
      9 CAE          3.9860    -0.0180     5.0180 c3         1 16Z       0.213800
     10 CAG          3.4120     1.1070     5.9050 c3         1 16Z       0.109100
     11 OAD          4.2760     2.2450     5.9020 oh         1 16Z      -0.580800
     12 CAA          3.3650     0.4530     7.3120 c3         1 16Z       0.122100
     13 OAC          4.6410     0.5240     7.9510 oh         1 16Z      -0.564800
     14 CAF          2.9990    -1.0120     6.9630 c3         1 16Z       0.151500
     15 CAB          3.4640    -1.9550     8.0750 c3         1 16Z      -0.070100
     16 NAH          3.7260    -1.2940     5.7080 n3         1 16Z      -0.690600
     17 CAI          2.9610    -2.2090     4.8510 c3         1 16Z       0.139100
     18 H1          -0.3610     0.0030    -1.0210 h1         1 16Z       0.041033
     19 H2          -0.3610    -0.8860     0.5080 h1         1 16Z       0.041033
     20 H3          -0.3610     0.8830     0.5130 h1         1 16Z       0.041033
     21 H4           0.2090    -0.0050     2.3190 ha         1 16Z       0.140500
     22 H5           1.3320    -0.0170     4.5140 ha         1 16Z       0.135500
     23 H6           4.0220     0.0080     0.3760 ha         1 16Z       0.140500
     24 H7           5.1380    -0.0010     2.5740 ha         1 16Z       0.135500
     25 H8           5.0530     0.1220     4.8950 h1         1 16Z       0.101700
     26 H9           2.4140     1.3760     5.5780 h1         1 16Z       0.042700
     27 H10          3.7620     3.0300     5.8180 ho         1 16Z       0.397000
     28 H11          2.5930     0.9070     7.9210 h1         1 16Z       0.035700
     29 H12          4.5980     1.1300     8.6720 ho         1 16Z       0.399000
     30 H13          1.9310    -1.1030     6.8060 h1         1 16Z       0.032700
     31 H14          4.5390    -2.0720     8.0230 hc         1 16Z       0.042033
     32 H15          3.1920    -1.5400     9.0380 hc         1 16Z       0.042033
     33 H16          2.9890    -2.9210     7.9510 hc         1 16Z       0.042033
     34 H18          2.9960    -3.2090     5.2670 h1         1 16Z       0.037367
     35 H19          3.3910    -2.2170     3.8570 h1         1 16Z       0.037367
     36 H20          1.9310    -1.8770     4.7960 h1         1 16Z       0.037367
@<TRIPOS>BOND
     1    13    12 1   
     2    11    10 1   
     3    12    10 1   
     4    12    14 1   
     5    10     9 1   
     6     9    16 1   
     7     9     8 1   
     8    16    14 1   
     9    16    17 1   
    10    15    14 1   
    11     5     8 ar  
    12     5     4 ar  
    13     8     7 ar  
    14     4     3 ar  
    15     7     6 ar  
    16     3     6 ar  
    17     3     2 1   
    18     2     1 1   
    19     1    18 1   
    20     1    19 1   
    21     1    20 1   
    22     4    21 1   
    23     5    22 1   
    24     6    23 1   
    25     7    24 1   
    26     9    25 1   
    27    10    26 1   
    28    11    27 1   
    29    12    28 1   
    30    13    29 1   
    31    14    30 1   
    32    15    31 1   
    33    15    32 1   
    34    15    33 1   
    35    17    34 1   
    36    17    35 1   
    37    17    36 1   
@<TRIPOS>SUBSTRUCTURE
     1 16Z         1 TEMP              0 ****  ****    0 ROOT
