@<TRIPOS>MOLECULE
170
   55    58     1     0     0
SMALL
bcc


@<TRIPOS>ATOM
      1 C8          0.5240   -0.3870   -1.8210 ca        1 170     -0.050000
      2 C2          1.9170   -0.2300   -1.7810 ca        1 170     -0.265600
      3 N1          2.6770   -0.7560   -0.7330 na        1 170      0.268600
      4 C4          1.9940   -1.4480    0.2660 ca        1 170     -0.203300
      5 C5          0.6120   -1.6120    0.2370 ca        1 170     -0.063000
      6 C6         -0.1390   -1.0740   -0.8110 ca        1 170     -0.160000
      7 C11         2.6500    0.5000   -2.9120 c3        1 170      0.482900
      8 C1          3.2460    1.8350   -2.3340 c3        1 170      0.163800
      9 N18         4.0270    2.5490   -3.3130 nh        1 170     -0.787200
     10 C21         4.8580    3.5820   -2.9380 cc        1 170      0.624200
     11 C22         5.8330    4.0440   -4.0090 c         1 170      0.556200
     12 N23         6.5810    5.1980   -3.7430 n         1 170     -0.344000
     13 C24         6.4560    5.8090   -2.4760 cc        1 170     -0.022000
     14 C25         5.5880    5.2810   -1.5400 cd        1 170      0.093600
     15 N3          4.7840    4.1900   -1.7530 nd        1 170     -0.590300
     16 O28         6.0370    3.4210   -5.0750 o         1 170     -0.684500
     17 CL2         7.3950    7.1710   -2.1010 cl        1 170     -0.020400
     18 C33         7.2960    5.8310   -4.8160 c3        1 170      0.018000
     19 C34         8.6980    5.2670   -5.0630 c         1 170      0.540100
     20 N37         8.7530    3.8000   -5.4090 n4        1 170     -0.667800
     21 O38         9.7380    5.9020   -5.0520 o         1 170     -0.398100
     22 C39        10.0210    3.3620   -6.0760 c3        1 170      0.171100
     23 C40         9.7700    2.4480   -7.2310 ca        1 170     -0.142300
     24 C43         9.9680    1.0770   -7.0290 ca        1 170     -0.090000
     25 C44         9.8170    0.1700   -8.0810 ca        1 170      0.023400
     26 C45         9.4560    0.6300   -9.3530 ca        1 170     -0.070000
     27 C50         9.4030    2.9130   -8.5150 ca        1 170      0.031800
     28 C47         9.2460    1.9870   -9.5690 ca        1 170     -0.121000
     29 F1          3.6210   -0.2840   -3.5020 f         1 170     -0.224800
     30 F2          1.8170    0.7480   -3.9870 f         1 170     -0.224800
     31 CL1        10.0670   -1.4770   -7.8130 cl        1 170     -0.018400
     32 O1          3.8890   -0.5980   -0.6810 o         1 170     -0.287000
     33 N14         8.9990    6.2400   -9.8160 nc        1 170     -0.338000
     34 N13         8.5060    6.3000   -8.5760 nc        1 170     -0.006000
     35 N12         8.5960    5.1900   -7.9530 nd        1 170     -0.284800
     36 N11         9.1910    4.2920   -8.7840 na        1 170     -0.026500
     37 C46         9.4470    4.9710  -10.0000 cd        1 170      0.431400
     38 H8         -0.0310    0.0400   -2.6740 ha        1 170      0.173000
     39 H4          2.6340   -1.8540    1.0690 h4        1 170      0.198000
     40 H5          0.1290   -2.1720    1.0540 ha        1 170      0.169000
     41 H6         -1.2320   -1.1960   -0.8390 ha        1 170      0.164000
     42 H11         2.3850    2.4850   -2.0090 h1        1 170      0.104200
     43 H12         3.8760    1.5700   -1.4350 h1        1 170      0.104200
     44 HN1         4.2610    2.0660   -4.1570 hn        1 170      0.463800
     45 H25         5.4910    5.7310   -0.5320 h4        1 170      0.210000
     46 H331        7.4310    6.9380   -4.6130 h1        1 170      0.143200
     47 H332        6.7160    5.7140   -5.7850 h1        1 170      0.143200
     48 H37         8.6160    3.2650   -4.5430 hn        1 170      0.476300
     49 H391       10.6530    2.8420   -5.2970 hx        1 170      0.119200
     50 H392       10.5970    4.2780   -6.4080 hx        1 170      0.119200
     51 H43        10.2610    0.7080   -6.0310 ha        1 170      0.164000
     52 H45         9.3330   -0.0810  -10.1880 ha        1 170      0.181000
     53 H47         8.9490    2.3290  -10.5750 ha        1 170      0.167000
     54 H46         9.9290    4.5340  -10.8830 h5        1 170      0.108100
     55 H372        7.9360    3.5890   -6.0150 hn        1 170      0.476300
@<TRIPOS>BOND
     1    1    2 ar
     2    1    6 ar
     3    1   38 1
     4    2    3 2
     5    2    7 1
     6    3    4 1
     7    3   32 1
     8    4    5 ar
     9    4   39 1
    10    5    6 ar
    11    5   40 1
    12    6   41 1
    13    7    8 1
    14    7   29 1
    15    7   30 1
    16    8    9 1
    17    8   42 1
    18    8   43 1
    19    9   10 1
    20    9   44 1
    21   10   11 1
    22   10   15 2
    23   11   12 1
    24   11   16 2
    25   12   13 1
    26   12   18 1
    27   13   14 2
    28   13   17 1
    29   14   15 1
    30   14   45 1
    31   18   19 1
    32   18   46 1
    33   18   47 1
    34   19   20 1
    35   19   21 2
    36   20   22 1
    37   20   48 1
    38   20   55 1
    39   22   23 1
    40   22   49 1
    41   22   50 1
    42   23   24 ar
    43   23   27 ar
    44   24   25 ar
    45   24   51 1
    46   25   26 ar
    47   25   31 1
    48   26   28 ar
    49   26   52 1
    50   27   28 ar
    51   27   36 1
    52   28   53 1
    53   33   34 1
    54   33   37 2
    55   34   35 2
    56   35   36 1
    57   36   37 1
    58   37   54 1
@<TRIPOS>SUBSTRUCTURE
     1 170         1 TEMP              0 ****  ****    0 ROOT
