@<TRIPOS>MOLECULE
171
   23    23     1     0     0
SMALL
bcc


@<TRIPOS>ATOM
      1 C3'         -0.3310    -0.3410     0.4580 ca         1 171      -0.093500
      2 C2'          1.0160    -0.6340     0.3030 ca         1 171      -0.208500
      3 C1'          1.9580    -0.2310     1.2850 ca         1 171       0.183600
      4 C6'          1.4700     0.4630     2.4250 ca         1 171      -0.208500
      5 N            3.3230    -0.4190     1.1140 nu         1 171      -0.736600
      6 C1           3.8090    -1.4520     0.2170 c3         1 171       0.224800
      7 C2           5.2180    -1.9030     0.5140 c3         1 171      -0.300600
      8 S            5.7600    -3.1820    -0.6240 s6         1 171       1.430800
      9 O1           7.0830    -3.4490    -0.2080 o          1 171      -0.747867
     10 O2           4.8590    -4.2500    -0.4120 o          1 171      -0.747867
     11 O3           5.6620    -2.5930    -1.9040 o          1 171      -0.747867
     12 C5'          0.1180     0.7470     2.5550 ca         1 171      -0.093500
     13 C4'         -0.7930     0.3500     1.5780 ca         1 171      -0.207000
     14 H3'         -1.0440    -0.6630    -0.3160 ha         1 171       0.114000
     15 H2'          1.3550    -1.1800    -0.5900 ha         1 171       0.133000
     16 H6'          2.1680     0.7830     3.2120 ha         1 171       0.133000
     17 HN           3.8650    -0.3140     1.9450 hn         1 171       0.398800
     18 H11          3.1310    -2.3570     0.2500 h1         1 171       0.055200
     19 H12          3.7710    -1.0320    -0.8310 h1         1 171       0.055200
     20 H21          5.2960    -2.3110     1.5490 h1         1 171       0.067700
     21 H22          5.9300    -1.0480     0.4380 h1         1 171       0.067700
     22 H5'         -0.2370     1.2890     3.4450 ha         1 171       0.114000
     23 H4'         -1.8610     0.5760     1.6900 ha         1 171       0.114000
@<TRIPOS>BOND
     1     1     2 ar  
     2     1    13 ar  
     3     1    14 1   
     4     2     3 ar  
     5     2    15 1   
     6     3     4 ar  
     7     3     5 1   
     8     4    12 ar  
     9     4    16 1   
    10     5     6 1   
    11     5    17 1   
    12     6     7 1   
    13     6    18 1   
    14     6    19 1   
    15     7     8 1   
    16     7    20 1   
    17     7    21 1   
    18     8     9 1   
    19     8    10 1   
    20     8    11 1   
    21    12    13 ar  
    22    12    22 1   
    23    13    23 1   
@<TRIPOS>SUBSTRUCTURE
     1 171         1 TEMP              0 ****  ****    0 ROOT
