@<TRIPOS>MOLECULE
molecule
   23    23     1     0     0
SMALL
bcc


@<TRIPOS>ATOM
      1 C3'          0.0000     0.0000     0.0000 ca         1 171      -0.085500
      2 C2'          1.3810     0.0000     0.0000 ca         1 171      -0.217000
      3 C1'          2.0740     0.0000     1.2040 ca         1 171       0.215600
      4 C6'          1.3730     0.0100     2.4040 ca         1 171      -0.217000
      5 N            3.4700    -0.0060     1.2090 nu         1 171      -0.812600
      6 C1           4.2070    -0.0170    -0.0580 c3         1 171       0.252800
      7 C2           5.7090    -0.0200     0.2260 c3         1 171      -0.271600
      8 S            6.6210    -0.0350    -1.3420 s6         1 171       1.242800
      9 O1           6.4940    -1.2820    -2.0100 o          1 171      -0.698867
     10 O2           6.5030     1.2050    -2.0270 o          1 171      -0.698867
     11 O3           8.0770    -0.0370    -0.8970 o          1 171      -0.698867
     12 C5'         -0.0070     0.0160     2.3970 ca         1 171      -0.085500
     13 C4'         -0.6930     0.0110     1.1960 ca         1 171      -0.210000
     14 H3'         -0.5410    -0.0020    -0.9390 ha         1 171       0.115500
     15 H2'          1.9230    -0.0080    -0.9380 ha         1 171       0.131000
     16 H6'          1.9100     0.0120     3.3450 ha         1 171       0.131000
     17 HN           3.9680    -0.0030     2.0770 hn         1 171       0.436800
     18 H11          3.9430    -0.9040    -0.6210 h1         1 171       0.041700
     19 H12          3.9500     0.8650    -0.6320 h1         1 171       0.041700
     20 H21          5.9730     0.8670     0.7890 h1         1 171       0.080700
     21 H22          5.9660    -0.9020     0.8010 h1         1 171       0.080700
     22 H5'         -0.5540     0.0240     3.3320 ha         1 171       0.115500
     23 H4'         -1.7770     0.0130     1.1920 ha         1 171       0.112000
@<TRIPOS>BOND
     1     1     2 ar
     2     1    13 ar
     3     1    14 1
     4     2     3 ar
     5     2    15 1
     6     3     4 ar
     7     3     5 1
     8     4    12 ar
     9     4    16 1
    10     5     6 1
    11     5    17 1
    12     6     7 1
    13     6    18 1
    14     6    19 1
    15     7     8 1
    16     7    20 1
    17     7    21 1
    18     8     9 1
    19     8    10 1
    20     8    11 1
    21    12    13 ar
    22    12    22 1
    23    13    23 1
@<TRIPOS>SUBSTRUCTURE
     1 171         1 TEMP              0 ****  ****    0 ROOT
