@<TRIPOS>MOLECULE
molecule
   18    19     1     0     0
SMALL
bcc


@<TRIPOS>ATOM
      1 C1           0.0000     0.0000     0.0000 ca         1 172       0.087100
      2 C2           1.3820     0.0000     0.0000 ca         1 172      -0.102000
      3 C3           2.0740     0.0000     1.2110 ca         1 172       0.110400
      4 C4           1.3570     0.0010     2.4190 ca         1 172      -0.099200
      5 C5          -0.0280     0.0010     2.4030 ca         1 172      -0.117000
      6 C6          -0.7020     0.0010     1.2000 ca         1 172      -0.137000
      7 N10          3.3950     0.0060     1.5310 nc         1 172      -0.609100
      8 C11          3.5340    -0.0000     2.8340 cd         1 172       0.643700
      9 N12          2.3060     0.0010     3.4300 na         1 172      -0.280300
     10 N14          4.7400     0.0010     3.5020 nv         1 172      -1.008800
     11 O17         -0.6760     0.0010    -1.1790 oh         1 172      -0.519100
     12 HC2          1.9250    -0.0010    -0.9370 ha         1 172       0.153000
     13 HC5         -0.5800     0.0020     3.3350 ha         1 172       0.129000
     14 HC6         -1.7860     0.0010     1.1890 ha         1 172       0.143000
     15 H12          2.1240    -0.0030     4.4140 hn         1 172       0.299700
     16 H141         5.1840     0.8680     3.7320 hn         1 172       0.445800
     17 H142         5.1830    -0.8650     3.7350 hn         1 172       0.445800
     18 H17         -0.7950    -0.8870    -1.4740 ho         1 172       0.416000
@<TRIPOS>BOND
     1     1     2 ar  
     2     1     6 ar  
     3     1    11 1   
     4     2     3 ar  
     5     2    12 1   
     6     3     4 ar  
     7     3     7 1   
     8     4     5 ar  
     9     4     9 1   
    10     5     6 ar  
    11     5    13 1   
    12     6    14 1   
    13     7     8 2   
    14     8     9 1   
    15     8    10 1   
    16     9    15 1   
    17    10    16 1   
    18    10    17 1   
    19    11    18 1   
@<TRIPOS>SUBSTRUCTURE
     1 172         1 TEMP              0 ****  ****    0 ROOT
