@<TRIPOS>MOLECULE
172
   18    19     1     0     0
SMALL
bcc


@<TRIPOS>ATOM
      1 C1          -0.1020    -0.1280     0.0390 ca         1 172       0.116100
      2 C2           1.2890    -0.2300    -0.0450 ca         1 172      -0.176000
      3 C3           2.0150    -0.1300     1.1450 ca         1 172       0.130400
      4 C4           1.3160     0.0800     2.3990 ca         1 172      -0.125200
      5 C5          -0.0750     0.1820     2.4510 ca         1 172      -0.091000
      6 C6          -0.7820     0.0730     1.2610 ca         1 172      -0.150000
      7 N10          3.4040    -0.1890     1.3730 nc         1 172      -0.614100
      8 C11          3.5490    -0.0430     2.7230 cd         1 172       0.584700
      9 N12          2.3030     0.2090     3.3960 na         1 172      -0.281300
     10 N14          4.7560    -0.1490     3.4400 nv         1 172      -0.855800
     11 O17         -0.9090    -0.2180    -1.0760 oh         1 172      -0.501100
     12 HC2          1.7980    -0.3810    -1.0070 ha         1 172       0.150000
     13 HC5         -0.6010     0.3460     3.4010 ha         1 172       0.139000
     14 HC6         -1.8790     0.1420     1.2520 ha         1 172       0.152000
     15 H12          2.1430    -0.0430     4.3390 hn         1 172       0.293700
     16 H141         4.8380     0.5240     4.1730 hn         1 172       0.404300
     17 H142         5.5560    -0.1560     2.8390 hn         1 172       0.404300
     18 H17         -0.3380    -0.3550    -1.8460 ho         1 172       0.419000
@<TRIPOS>BOND
     1     1     2 ar  
     2     1     6 ar  
     3     1    11 1   
     4     2     3 ar  
     5     2    12 1   
     6     3     4 ar  
     7     3     7 1   
     8     4     5 ar  
     9     4     9 1   
    10     5     6 ar  
    11     5    13 1   
    12     6    14 1   
    13     7     8 2   
    14     8     9 1   
    15     8    10 1   
    16     9    15 1   
    17    10    16 1   
    18    10    17 1   
    19    11    18 1   
@<TRIPOS>SUBSTRUCTURE
     1 172         1 TEMP              0 ****  ****    0 ROOT
