@<TRIPOS>MOLECULE
173
   16    16     1     0     0
SMALL
bcc


@<TRIPOS>ATOM
      1 O1B         0.6330    1.1220   -0.0370 o         1 173     -0.809800
      2 C1          1.3440    0.0880    0.0220 c         1 173      0.862600
      3 O1A         1.5200   -0.6320    1.0430 o         1 173     -0.809800
      4 C2          2.0950   -0.3270   -1.2580 c         1 173      0.466700
      5 O2          1.5510   -0.8720   -2.2270 o         1 173     -0.579100
      6 C1G         3.5560   -0.0340   -1.2870 ca        1 173     -0.142600
      7 C2D         4.2040    0.2310   -2.4990 ca        1 173     -0.090500
      8 C2E         5.5670    0.5210   -2.5190 ca        1 173     -0.161000
      9 C3          6.2940    0.5380   -1.3290 ca        1 173     -0.137000
     10 C1E         5.6550    0.2670   -0.1200 ca        1 173     -0.161000
     11 C1D         4.2900   -0.0140   -0.0940 ca        1 173     -0.090500
     12 H2D         3.6210    0.2040   -3.4320 ha        1 173      0.160000
     13 H2E         6.0690    0.7350   -3.4730 ha        1 173      0.113000
     14 H3          7.3690    0.7640   -1.3460 ha        1 173      0.107000
     15 H1E         6.2280    0.2790    0.8180 ha        1 173      0.113000
     16 H1D         3.7640   -0.2240    0.8570 ha        1 173      0.160000
@<TRIPOS>BOND
     1    1    2 1   
     2    2    3 1   
     3    2    4 1   
     4    4    5 2   
     5    4    6 1   
     6    6    7 ar  
     7    6   11 ar  
     8    7    8 ar  
     9    7   12 1   
    10    8    9 ar  
    11    8   13 1   
    12    9   10 ar  
    13    9   14 1   
    14   10   11 ar  
    15   10   15 1   
    16   11   16 1   
@<TRIPOS>SUBSTRUCTURE
     1 173         1 TEMP              0 ****  ****    0 ROOT
