@<TRIPOS>MOLECULE
molecule
   16    16     1     0     0
SMALL
bcc


@<TRIPOS>ATOM
      1 O1B          0.0000     0.0000     0.0000 o          1 173      -0.811800
      2 C1           1.3460     0.0000     0.0000 c          1 173       0.816600
      3 O1A          1.9530     0.0000     1.0500 o          1 173      -0.811800
      4 C2           2.0910     0.0000    -1.2920 c          1 173       0.476700
      5 O2           1.4880    -0.0950    -2.3410 o          1 173      -0.541100
      6 C1G          3.5600     0.1170    -1.2960 ca         1 173      -0.159600
      7 C2D          4.2520     0.2490    -2.5050 ca         1 173      -0.085500
      8 C2E          5.6270     0.3590    -2.4990 ca         1 173      -0.170000
      9 C3           6.3210     0.3380    -1.3030 ca         1 173      -0.131000
     10 C1E          5.6430     0.2090    -0.1030 ca         1 173      -0.170000
     11 C1D          4.2690     0.1040    -0.0910 ca         1 173      -0.085500
     12 H2D          3.7040     0.3540    -3.4340 ha         1 173       0.174500
     13 H2E          6.1640     0.4620    -3.4340 ha         1 173       0.111000
     14 H3           7.4010     0.4240    -1.3060 ha         1 173       0.103000
     15 H1E          6.1940     0.1900     0.8300 ha         1 173       0.111000
     16 H1D          3.7460    -0.0620     0.8430 ha         1 173       0.174500
@<TRIPOS>BOND
     1     1     2 1   
     2     2     3 1   
     3     2     4 1   
     4     4     5 2   
     5     4     6 1   
     6     6     7 ar  
     7     6    11 ar  
     8     7     8 ar  
     9     7    12 1   
    10     8     9 ar  
    11     8    13 1   
    12     9    10 ar  
    13     9    14 1   
    14    10    11 ar  
    15    10    15 1   
    16    11    16 1   
@<TRIPOS>SUBSTRUCTURE
     1 173         1 TEMP              0 ****  ****    0 ROOT
