@<TRIPOS>MOLECULE
173
   16    16     1     0     0
SMALL
bcc


@<TRIPOS>ATOM
      1 O1B          0.1130     0.7050    -0.0400 o          1 173      -0.809800
      2 C1           1.1500    -0.0120    -0.0940 c          1 173       0.862600
      3 O1A          1.4970    -0.8720     0.7540 o          1 173      -0.809800
      4 C2           2.0540     0.1660    -1.3290 c          1 173       0.466700
      5 O2           3.1370     0.7650    -1.3070 o          1 173      -0.579100
      6 C1G          1.5560    -0.4350    -2.5990 ca         1 173      -0.142600
      7 C2D          0.1790    -0.5500    -2.8260 ca         1 173      -0.090500
      8 C2E         -0.2870    -1.1190    -4.0110 ca         1 173      -0.161000
      9 C3           0.6140    -1.5820    -4.9700 ca         1 173      -0.137000
     10 C1E          1.9860    -1.4710    -4.7470 ca         1 173      -0.161000
     11 C1D          2.4550    -0.8950    -3.5680 ca         1 173      -0.090500
     12 H2D         -0.5210    -0.1840    -2.0510 ha         1 173       0.160000
     13 H2E         -1.3680    -1.2050    -4.1870 ha         1 173       0.113000
     14 H3           0.2430    -2.0350    -5.9000 ha         1 173       0.107000
     15 H1E          2.6970    -1.8360    -5.5010 ha         1 173       0.113000
     16 H1D          3.5360    -0.7910    -3.3840 ha         1 173       0.160000
@<TRIPOS>BOND
     1     1     2 1   
     2     2     3 1   
     3     2     4 1   
     4     4     5 2   
     5     4     6 1   
     6     6     7 ar  
     7     6    11 ar  
     8     7     8 ar  
     9     7    12 1   
    10     8     9 ar  
    11     8    13 1   
    12     9    10 ar  
    13     9    14 1   
    14    10    11 ar  
    15    10    15 1   
    16    11    16 1   
@<TRIPOS>SUBSTRUCTURE
     1 173         1 TEMP              0 ****  ****    0 ROOT
