@<TRIPOS>MOLECULE
molecule
   14    14     1     0     0
SMALL
bcc


@<TRIPOS>ATOM
      1 Cl4          0.0000     0.0000     0.0000 cl         1 174      -0.173400
      2 C4           1.7360     0.0000     0.0000 ca         1 174       0.009400
      3 C5           2.4260     0.0000     1.1990 ca         1 174      -0.154000
      4 C6           3.8040    -0.0000     1.2060 ca         1 174      -0.095000
      5 C3           2.4260    -0.0000    -1.2020 ca         1 174      -0.154000
      6 C2           3.8040     0.0040    -1.2090 ca         1 174      -0.095000
      7 C1           4.5050    -0.0000    -0.0020 ca         1 174      -0.098600
      8 C            5.9820    -0.0000    -0.0020 c          1 174       0.881200
      9 O1           6.6550    -0.0010    -1.1690 o          1 174      -0.834300
     10 O2           6.5890    -0.0000     1.0500 o          1 174      -0.834300
     11 H5           1.8810     0.0000     2.1360 ha         1 174       0.118500
     12 H6           4.3430    -0.0020     2.1460 ha         1 174       0.156000
     13 H3           1.8800     0.0030    -2.1380 ha         1 174       0.118500
     14 H2           4.3420     0.0040    -2.1500 ha         1 174       0.156000
@<TRIPOS>BOND
     1     1     2 1   
     2     2     3 ar  
     3     2     5 ar  
     4     3     4 ar  
     5     3    11 1   
     6     4     7 ar  
     7     4    12 1   
     8     5     6 ar  
     9     5    13 1   
    10     6     7 ar  
    11     6    14 1   
    12     7     8 1   
    13     8     9 1   
    14     8    10 1   
@<TRIPOS>SUBSTRUCTURE
     1 174         1 TEMP              0 ****  ****    0 ROOT
