@<TRIPOS>MOLECULE
174
   14    14     1     0     0
SMALL
bcc


@<TRIPOS>ATOM
      1 Cl4          0.0670     0.0210    -0.1160 cl         1 174      -0.166400
      2 C4           1.7760    -0.0010     0.0090 ca         1 174      -0.000600
      3 C5           2.3740    -0.0030     1.2720 ca         1 174      -0.156000
      4 C6           3.7650    -0.0210     1.3650 ca         1 174      -0.103000
      5 C3           2.5520    -0.0150    -1.1530 ca         1 174      -0.156000
      6 C2           3.9410    -0.0330    -1.0420 ca         1 174      -0.103000
      7 C1           4.5580    -0.0360     0.2130 ca         1 174      -0.121600
      8 C            6.0770    -0.0550     0.3250 c          1 174       0.908200
      9 O1           6.7460    -0.0670    -0.7460 o          1 174      -0.828300
     10 O2           6.5830    -0.0580     1.4820 o          1 174      -0.828300
     11 H5           1.7560     0.0080     2.1800 ha         1 174       0.121000
     12 H6           4.2680    -0.0240     2.3460 ha         1 174       0.156000
     13 H3           2.0730    -0.0130    -2.1410 ha         1 174       0.121000
     14 H2           4.5820    -0.0440    -1.9380 ha         1 174       0.156000
@<TRIPOS>BOND
     1     1     2 1   
     2     2     3 ar  
     3     2     5 ar  
     4     3     4 ar  
     5     3    11 1   
     6     4     7 ar  
     7     4    12 1   
     8     5     6 ar  
     9     5    13 1   
    10     6     7 ar  
    11     6    14 1   
    12     7     8 1   
    13     8     9 1   
    14     8    10 1   
@<TRIPOS>SUBSTRUCTURE
     1 174         1 TEMP              0 ****  ****    0 ROOT
