@<TRIPOS>MOLECULE
178
   43    44     1     0     0
SMALL
bcc


@<TRIPOS>ATOM
      1 O            0.2780    -0.9660    -0.2720 oh         1 178      -0.497100
      2 C1           1.6380    -0.7480    -0.2710 ca         1 178       0.129100
      3 C2           2.1650     0.0690     0.7510 ca         1 178      -0.089300
      4 C2A          1.2770     0.6680     1.7960 c3         1 178      -0.020400
      5 C2B          1.3680     2.1820     1.7890 c3         1 178      -0.088600
      6 C2G          1.6180     0.1230     3.1710 c3         1 178      -0.088600
      7 C3           3.5430     0.2940     0.7660 ca         1 178      -0.085000
      8 C4           4.3870    -0.2570    -0.2020 ca         1 178      -0.063600
      9 C5           3.8390    -1.0560    -1.2140 ca         1 178      -0.072000
     10 C6           2.4740    -1.3110    -1.2470 ca         1 178      -0.207000
     11 S            6.0800    -0.1250    -0.1990 ss         1 178      -0.106800
     12 C1'          7.3960     3.8360     1.4440 ca         1 178       0.129100
     13 C2'          6.1490     3.7850     0.7870 ca         1 178      -0.089300
     14 C2X          5.3200     5.0180     0.6080 c3         1 178      -0.020400
     15 C2Y          5.1670     5.3560    -0.8640 c3         1 178      -0.088600
     16 C2Z          3.9580     4.8610     1.2590 c3         1 178      -0.088600
     17 C3'          5.7150     2.5520     0.2970 ca         1 178      -0.085000
     18 C4'          6.4770     1.3910     0.4550 ca         1 178      -0.063600
     19 C5'          7.7070     1.4630     1.1220 ca         1 178      -0.072000
     20 C6'          8.1730     2.6790     1.6070 ca         1 178      -0.207000
     21 HO           0.0700    -1.5400    -1.0240 ho         1 178       0.420000
     22 H2A          0.2090     0.3840     1.5640 hc         1 178       0.072700
     23 H2B1         2.3930     2.5220     2.0770 hc         1 178       0.036200
     24 H2B2         1.1350     2.5830     0.7740 hc         1 178       0.036200
     25 H2B3         0.6380     2.6080     2.5190 hc         1 178       0.036200
     26 H2G1         1.5090    -0.9880     3.1860 hc         1 178       0.036200
     27 H2G2         2.6680     0.3800     3.4490 hc         1 178       0.036200
     28 H2G3         0.9310     0.5610     3.9340 hc         1 178       0.036200
     29 H3           3.9710     0.9230     1.5640 ha         1 178       0.147000
     30 H5           4.4960    -1.4860    -1.9870 ha         1 178       0.144000
     31 H6           2.0490    -1.9460    -2.0370 ha         1 178       0.135000
     32 HO'          8.6780     4.9350     2.3390 ho         1 178       0.420000
     33 H2X          5.8470     5.8800     1.1110 hc         1 178       0.072700
     34 H2Y1         6.1680     5.5140    -1.3320 hc         1 178       0.036200
     35 H2Y2         4.5670     6.2910    -0.9780 hc         1 178       0.036200
     36 H2Y3         4.6470     4.5320    -1.4070 hc         1 178       0.036200
     37 H2Z1         3.3900     5.8190     1.1840 hc         1 178       0.036200
     38 H2Z2         3.3650     4.0580     0.7550 hc         1 178       0.036200
     39 H2Z3         4.0690     4.5950     2.3370 hc         1 178       0.036200
     40 H3'          4.7470     2.4980    -0.2280 ha         1 178       0.147000
     41 H5'          8.3090     0.5510     1.2600 ha         1 178       0.144000
     42 H6'          9.1430     2.7340     2.1220 ha         1 178       0.135000
     43 O'           7.8150     5.0590     1.9180 oh         1 178      -0.497100
@<TRIPOS>BOND
     1     1     2 1   
     2     1    21 1   
     3     2     3 ar  
     4     2    10 ar  
     5     3     4 1   
     6     3     7 ar  
     7     4     5 1   
     8     4     6 1   
     9     4    22 1   
    10     5    23 1   
    11     5    24 1   
    12     5    25 1   
    13     6    26 1   
    14     6    27 1   
    15     6    28 1   
    16     7     8 ar  
    17     7    29 1   
    18     8     9 ar  
    19     8    11 1   
    20     9    10 ar  
    21     9    30 1   
    22    10    31 1   
    23    11    18 1   
    24    12    13 ar  
    25    12    20 ar  
    26    12    43 1   
    27    13    14 1   
    28    13    17 ar  
    29    14    15 1   
    30    14    16 1   
    31    14    33 1   
    32    15    34 1   
    33    15    35 1   
    34    15    36 1   
    35    16    37 1   
    36    16    38 1   
    37    16    39 1   
    38    17    18 ar  
    39    17    40 1   
    40    18    19 ar  
    41    19    20 ar  
    42    19    41 1   
    43    20    42 1   
    44    32    43 1   
@<TRIPOS>SUBSTRUCTURE
     1 178         1 TEMP              0 ****  ****    0 ROOT
