@<TRIPOS>MOLECULE
molecule
   43    44     1     0     0
SMALL
bcc


@<TRIPOS>ATOM
      1 O            0.0000     0.0000     0.0000 oh         1 178      -0.502100
      2 C1           1.3600     0.0000     0.0000 ca         1 178       0.138100
      3 C2           2.0530     0.0000     1.2000 ca         1 178      -0.100800
      4 C2A          1.2990    -0.0060     2.5050 c3         1 178      -0.026900
      5 C2B          1.6680    -1.2580     3.3020 c3         1 178      -0.085350
      6 C2G          1.6670     1.2390     3.3130 c3         1 178      -0.085350
      7 C3           3.4330     0.0000     1.2000 ca         1 178      -0.064500
      8 C4           4.1270     0.0050    -0.0020 ca         1 178      -0.025600
      9 C5           3.4330     0.0100    -1.2050 ca         1 178      -0.080000
     10 C6           2.0530     0.0110    -1.2020 ca         1 178      -0.207500
     11 S            5.8900     0.0050    -0.0030 ss         1 178      -0.202800
     12 C1'          6.6760    -0.4270    -4.4440 ca         1 178       0.138100
     13 C2'          6.4560    -1.5530    -3.6660 ca         1 178      -0.100800
     14 C2X          6.4800    -2.9200    -4.2990 c3         1 178      -0.026900
     15 C2Y          7.5760    -3.7660    -3.6450 c3         1 178      -0.085350
     16 C2Z          5.1240    -3.5990    -4.0960 c3         1 178      -0.085350
     17 C3'          6.2210    -1.4230    -2.3120 ca         1 178      -0.064500
     18 C4'          6.1940    -0.1630    -1.7290 ca         1 178      -0.025600
     19 C5'          6.4150     0.9650    -2.5090 ca         1 178      -0.080000
     20 C6'          6.6550     0.8330    -3.8620 ca         1 178      -0.207500
     21 HO          -0.3140    -0.4450    -0.7700 ho         1 178       0.422500
     22 H2A          0.2340    -0.0050     2.3060 hc         1 178       0.073700
     23 H2B1         2.6670    -1.1490     3.7060 hc         1 178       0.036117
     24 H2B2         0.9630    -1.3910     4.1130 hc         1 178       0.036117
     25 H2B3         1.6350    -2.1230     2.6500 hc         1 178       0.036117
     26 H2G1         2.6720     1.1320     3.7040 hc         1 178       0.036117
     27 H2G2         1.6200     2.1120     2.6740 hc         1 178       0.036117
     28 H2G3         0.9710     1.3550     4.1350 hc         1 178       0.036117
     29 H3           3.9750    -0.0020     2.1380 ha         1 178       0.148000
     30 H5           3.9740     0.0170    -2.1430 ha         1 178       0.146500
     31 H6           1.5100     0.0140    -2.1400 ha         1 178       0.135000
     32 HO'          7.5080     0.1210    -6.0560 ho         1 178       0.422500
     33 H2X          6.6810    -2.8250    -5.3590 hc         1 178       0.073700
     34 H2Y1         8.4310    -3.1390    -3.4240 hc         1 178       0.036117
     35 H2Y2         7.8730    -4.5570    -4.3230 hc         1 178       0.036117
     36 H2Y3         7.1980    -4.1990    -2.7270 hc         1 178       0.036117
     37 H2Z1         5.0780    -4.5000    -4.6950 hc         1 178       0.036117
     38 H2Z2         5.0010    -3.8540    -3.0500 hc         1 178       0.036117
     39 H2Z3         4.3330    -2.9240    -4.3990 hc         1 178       0.036117
     40 H3'          6.0500    -2.3040    -1.7050 ha         1 178       0.148000
     41 H5'          6.3990     1.9490    -2.0550 ha         1 178       0.146500
     42 H6'          6.8280     1.7130    -4.4700 ha         1 178       0.135000
     43 O'           6.9130    -0.5550    -5.7760 oh         1 178      -0.502100
@<TRIPOS>BOND
     1     1     2 1
     2     1    21 1
     3     2     3 ar
     4     2    10 ar
     5     3     4 1
     6     3     7 ar
     7     4     5 1
     8     4     6 1
     9     4    22 1
    10     5    23 1
    11     5    24 1
    12     5    25 1
    13     6    26 1
    14     6    27 1
    15     6    28 1
    16     7     8 ar
    17     7    29 1
    18     8     9 ar
    19     8    11 1
    20     9    10 ar
    21     9    30 1
    22    10    31 1
    23    11    18 1
    24    43    12 1
    25    43    32 1
    26    12    13 ar
    27    12    20 ar
    28    13    14 1
    29    13    17 ar
    30    14    15 1
    31    14    16 1
    32    14    33 1
    33    15    34 1
    34    15    35 1
    35    15    36 1
    36    16    37 1
    37    16    38 1
    38    16    39 1
    39    17    18 ar
    40    17    40 1
    41    18    19 ar
    42    19    20 ar
    43    19    41 1
    44    20    42 1
@<TRIPOS>SUBSTRUCTURE
     1 178         1 TEMP              0 ****  ****    0 ROOT
