@<TRIPOS>MOLECULE
178
   43    42     1     0     0
SMALL
bcc


@<TRIPOS>ATOM
      1 O          -0.2430   -0.5490    0.5010 oh        1 178     -0.502100
      2 C1          1.0410   -0.1240    0.1850 ce        1 178      0.199900
      3 C2          1.9660   -0.1140    1.1860 cf        1 178     -0.080700
      4 C2A         1.5810   -0.5120    2.5830 c3        1 178     -0.022500
      5 C2B         2.5440   -1.5400    3.1440 c3        1 178     -0.086600
      6 C2G         1.5080    0.7030    3.4890 c3        1 178     -0.086600
      7 C3          3.3430    0.2920    0.9930 cf        1 178     -0.108000
      8 C4          4.0680    0.1040   -0.1210 c2        1 178     -0.131400
      9 C5          1.4320    0.6310   -2.2820 c1        1 178     -0.107500
     10 C6          1.2630    0.2790   -1.1490 cg        1 178     -0.203800
     11 S           5.6440    0.6760   -0.2430 ss        1 178     -0.082200
     12 C1'         7.3660   -0.6380   -4.4110 ce        1 178      0.199900
     13 C2'         6.5730   -1.4240   -3.6290 cf        1 178     -0.080700
     14 C2X         6.3660   -2.8730   -3.9680 c3        1 178     -0.022500
     15 C2Y         6.5940   -3.7570   -2.7570 c3        1 178     -0.086600
     16 C2Z         4.9800   -3.1010   -4.5420 c3        1 178     -0.086600
     17 C3'         5.8670   -0.9320   -2.4620 cf        1 178     -0.108000
     18 C4'         6.3140    0.0140   -1.6230 c2        1 178     -0.131400
     19 C5'         7.7970    1.9150   -4.0930 c1        1 178     -0.107500
     20 C6'         7.6000    0.7410   -4.2280 cg        1 178     -0.203800
     21 HO         -0.7930   -0.4590   -0.2890 ho        1 178      0.422500
     22 H2A         0.5540   -0.9820    2.5540 hc        1 178      0.072700
     23 H2B1        2.5780   -2.4400    2.4860 hc        1 178      0.035283
     24 H2B2        2.2120   -1.8540    4.1620 hc        1 178      0.035283
     25 H2B3        3.5760   -1.1190    3.2220 hc        1 178      0.035283
     26 H2G1        2.5100    1.1830    3.5970 hc        1 178      0.035283
     27 H2G2        0.7970    1.4560    3.0730 hc        1 178      0.035283
     28 H2G3        1.1530    0.3970    4.5030 hc        1 178      0.035283
     29 H3          3.8020    0.7750    1.8770 ha        1 178      0.133500
     30 H5          3.6260   -0.4100   -0.9900 h4        1 178      0.155500
     31 H6          1.5870    0.9450   -3.2840 ha        1 178      0.172500
     32 HO'         8.5270   -0.5670   -5.9430 ho        1 178      0.422500
     33 H2X         7.1190   -3.1690   -4.7560 hc        1 178      0.072700
     34 H2Y1        7.6200   -3.5980   -2.3470 hc        1 178      0.035283
     35 H2Y2        5.8530   -3.5320   -1.9520 hc        1 178      0.035283
     36 H2Y3        6.4870   -4.8300   -3.0460 hc        1 178      0.035283
     37 H2Z1        4.1910   -2.8690   -3.7870 hc        1 178      0.035283
     38 H2Z2        4.8200   -2.4530   -5.4360 hc        1 178      0.035283
     39 H2Z3        4.8700   -4.1690   -4.8500 hc        1 178      0.035283
     40 H3'         4.8990   -1.4340   -2.2820 ha        1 178      0.133500
     41 H5'         7.3070    0.4740   -1.7960 h4        1 178      0.155500
     42 H6'         7.9690    2.9550   -3.9690 ha        1 178      0.172500
     43 O'          7.9830   -1.2350   -5.5040 oh        1 178     -0.502100
@<TRIPOS>BOND
     1    1    2 1   
     2    1   21 1   
     3    2    3 2   
     4    2   10 1   
     5    3    4 1   
     6    3    7 1   
     7    4    5 1   
     8    4    6 1   
     9    4   22 1   
    10    5   23 1   
    11    5   24 1   
    12    5   25 1   
    13    6   26 1   
    14    6   27 1   
    15    6   28 1   
    16    7    8 2   
    17    7   29 1   
    18    8   11 1   
    19    8   30 1   
    20    9   10 3   
    21    9   31 1   
    22   11   18 1   
    23   12   13 2   
    24   12   20 1   
    25   12   43 1   
    26   13   14 1   
    27   13   17 1   
    28   14   15 1   
    29   14   16 1   
    30   14   33 1   
    31   15   34 1   
    32   15   35 1   
    33   15   36 1   
    34   16   37 1   
    35   16   38 1   
    36   16   39 1   
    37   17   18 2   
    38   17   40 1   
    39   18   41 1   
    40   19   20 3   
    41   19   42 1   
    42   32   43 1   
@<TRIPOS>SUBSTRUCTURE
     1 178         1 TEMP              0 ****  ****    0 ROOT
