@<TRIPOS>MOLECULE
179
   48    50     1     0     0
SMALL
bcc


@<TRIPOS>ATOM
      1 C18         -0.1400     0.2150    -0.1250 ca         1 179      -0.107000
      2 C17          1.2630     0.4400    -0.1330 ca         1 179      -0.028000
      3 C16          1.9310     0.9380     1.0190 ca         1 179      -0.119000
      4 C15          3.2880     1.1500     0.9970 ca         1 179      -0.107000
      5 C14          4.0380     0.8760    -0.1720 ca         1 179      -0.107000
      6 C13          3.4160     0.3950    -1.3000 ca         1 179      -0.114000
      7 C12          2.0150     0.1670    -1.3030 ca         1 179      -0.037000
      8 C11          1.3400    -0.3310    -2.4520 ca         1 179      -0.075000
      9 C10         -0.0120    -0.5470    -2.4430 ca         1 179      -0.156000
     10 C9          -0.7740    -0.2710    -1.2570 ca         1 179       0.002600
     11 N2          -2.1700    -0.5240    -1.3260 ns         1 179      -0.385100
     12 C8          -3.0630    -0.3120    -0.3280 c          1 179       0.611100
     13 O8          -2.8650     0.1270     0.8190 o          1 179      -0.565100
     14 C7          -4.5260    -0.6790    -0.6970 c          1 179       0.452100
     15 O7          -4.9350    -1.0730    -1.7770 o          1 179      -0.402100
     16 N1          -5.4970    -0.5220     0.4340 ny         1 179      -0.667800
     17 C1          -6.8650    -0.0540     0.0040 c3         1 179       0.336300
     18 O5          -6.7370     1.3430    -0.2260 os         1 179      -0.437600
     19 C5          -7.9690     1.9350    -0.7010 c3         1 179       0.120100
     20 C6          -7.6290     3.4120    -0.9390 c3         1 179       0.132400
     21 O6          -8.3600     4.1820    -0.0000 oh         1 179      -0.618800
     22 C4          -9.0910     1.7230     0.3310 c3         1 179       0.096100
     23 O4         -10.3270     2.1550    -0.1990 oh         1 179      -0.590800
     24 C3          -9.2560     0.2220     0.6260 c3         1 179       0.115100
     25 O3         -10.1710    -0.0050     1.6790 oh         1 179      -0.596800
     26 C2          -7.9080    -0.3260     1.1210 c3         1 179       0.107100
     27 O2          -7.9180    -1.7240     1.3160 oh         1 179      -0.625800
     28 H18         -0.6900     0.4410     0.8040 ha         1 179       0.166000
     29 H16          1.3420     1.1480     1.9250 ha         1 179       0.141000
     30 H15          3.8090     1.5340     1.8880 ha         1 179       0.147000
     31 H14          5.1250     1.0540    -0.1650 ha         1 179       0.149000
     32 H13          3.9910     0.1790    -2.2140 ha         1 179       0.145000
     33 H11          1.9290    -0.5430    -3.3600 ha         1 179       0.153000
     34 H10         -0.5110    -0.9340    -3.3450 ha         1 179       0.140000
     35 HN2         -2.5030    -0.8790    -2.2010 hn         1 179       0.352500
     36 HN1         -5.6220    -1.4330     0.9050 hn         1 179       0.493800
     37 H1          -7.1390    -0.6010    -0.9490 hx         1 179       0.126700
     38 H5          -8.2440     1.4460    -1.6760 h1         1 179       0.077700
     39 H6          -6.5250     3.5800    -0.8100 h1         1 179       0.060700
     40 H6A         -7.9350     3.6940    -1.9820 h1         1 179       0.060700
     41 HO6         -8.0900     5.1020    -0.1170 ho         1 179       0.435000
     42 H4          -8.8480     2.2770     1.2810 h1         1 179       0.091700
     43 HO4        -10.3290     3.1230    -0.1600 ho         1 179       0.445000
     44 H3          -9.5980    -0.3250    -0.2970 h1         1 179       0.075700
     45 HO3        -10.9930     0.4500     1.4400 ho         1 179       0.452000
     46 H2          -7.6210     0.1900     2.0810 h1         1 179       0.088700
     47 HO2         -8.7530    -1.9510     1.7560 ho         1 179       0.472000
     48 H12         -5.0970     0.1520     1.1100 hn         1 179       0.493800
@<TRIPOS>BOND
     1     1     2 ar  
     2     1    10 ar  
     3     1    28 1   
     4     2     3 ar  
     5     2     7 ar  
     6     3     4 ar  
     7     3    29 1   
     8     4     5 ar  
     9     4    30 1   
    10     5     6 ar  
    11     5    31 1   
    12     6     7 ar  
    13     6    32 1   
    14     7     8 ar  
    15     8     9 ar  
    16     8    33 1   
    17     9    10 ar  
    18     9    34 1   
    19    10    11 1   
    20    11    12 1   
    21    11    35 1   
    22    12    13 2   
    23    12    14 1   
    24    14    15 2   
    25    14    16 1   
    26    16    17 1   
    27    16    36 1   
    28    16    48 1   
    29    17    18 1   
    30    17    26 1   
    31    17    37 1   
    32    18    19 1   
    33    19    20 1   
    34    19    22 1   
    35    19    38 1   
    36    20    21 1   
    37    20    39 1   
    38    20    40 1   
    39    21    41 1   
    40    22    23 1   
    41    22    24 1   
    42    22    42 1   
    43    23    43 1   
    44    24    25 1   
    45    24    26 1   
    46    24    44 1   
    47    25    45 1   
    48    26    27 1   
    49    26    46 1   
    50    27    47 1   
@<TRIPOS>SUBSTRUCTURE
     1 179         1 TEMP              0 ****  ****    0 ROOT
