@<TRIPOS>MOLECULE
molecule
   47    49     1     0     0
SMALL
bcc


@<TRIPOS>ATOM
      1 C18          0.0000     0.0000     0.0000 ca         1 179      -0.151000
      2 C17          1.4030     0.0000     0.0000 ca         1 179      -0.019000
      3 C16          2.1310     0.0000     1.2030 ca         1 179      -0.119000
      4 C15          3.4910    -0.0000     1.1660 ca         1 179      -0.122000
      5 C14          4.1770    -0.0020    -0.0480 ca         1 179      -0.130000
      6 C13          3.5050    -0.0020    -1.2310 ca         1 179      -0.111000
      7 C12          2.1000    -0.0020    -1.2350 ca         1 179      -0.046000
      8 C11          1.3760    -0.0030    -2.4390 ca         1 179      -0.103000
      9 C10          0.0170    -0.0020    -2.4130 ca         1 179      -0.125000
     10 C9          -0.6790    -0.0020    -1.1990 ca         1 179       0.056600
     11 N2          -2.0760    -0.0020    -1.2030 ns         1 179      -0.450100
     12 C8          -2.7470     0.6710    -2.1590 c          1 179       0.599100
     13 O8          -2.1410     1.2060    -3.0640 o          1 179      -0.592100
     14 C7          -4.2370     0.7560    -2.1070 c          1 179       0.608100
     15 O7          -4.8430     0.2200    -1.2020 o          1 179      -0.591100
     16 N1          -4.9080     1.4270    -3.0620 ns         1 179      -0.535900
     17 C1          -6.3700     1.5110    -3.0110 c3         1 179       0.318500
     18 O5          -6.9360     0.4770    -3.8200 os         1 179      -0.417600
     19 C5          -8.3640     0.4510    -3.8190 c3         1 179       0.153100
     20 C6          -8.8540    -0.7070    -4.6900 c3         1 179       0.152400
     21 O6          -8.4530    -1.9470    -4.1040 oh         1 179      -0.595800
     22 C4          -8.8970     1.7730    -4.3790 c3         1 179       0.100100
     23 O4         -10.3250     1.7730    -4.3260 oh         1 179      -0.599800
     24 C3          -8.3540     2.9310    -3.5370 c3         1 179       0.112100
     25 O3          -8.7860     4.1730    -4.0970 oh         1 179      -0.605800
     26 C2          -6.8230     2.8740    -3.5390 c3         1 179       0.097100
     27 O2          -6.3060     3.9070    -2.6970 oh         1 179      -0.592800
     28 H18         -0.5450     0.0010     0.9360 ha         1 179       0.137000
     29 H16          1.6120     0.0010     2.1530 ha         1 179       0.132000
     30 H15          4.0500     0.0000     2.0950 ha         1 179       0.128000
     31 H14          5.2600    -0.0020    -0.0490 ha         1 179       0.128000
     32 H13          4.0520    -0.0030    -2.1660 ha         1 179       0.132000
     33 H11          1.9000    -0.0030    -3.3870 ha         1 179       0.137000
     34 H10         -0.5350    -0.0040    -3.3460 ha         1 179       0.163000
     35 HN2         -2.5790    -0.5160    -0.5070 hn         1 179       0.348500
     36 HN1         -4.4110     1.8340    -3.8300 hn         1 179       0.339500
     37 H1          -6.7070     1.3920    -1.9880 h2         1 179       0.093700
     38 H5          -8.7200     0.3220    -2.8040 h1         1 179       0.069700
     39 H6          -8.4250    -0.6200    -5.6810 h1         1 179       0.035700
     40 H6A         -9.9350    -0.6730    -4.7600 h1         1 179       0.035700
     41 HO6         -8.8870    -2.6580    -4.5460 ho         1 179       0.403000
     42 H4          -8.5690     1.8870    -5.4050 h1         1 179       0.055700
     43 HO4        -10.6700     2.0880    -5.1450 ho         1 179       0.414000
     44 H3          -8.7170     2.8400    -2.5210 h1         1 179       0.065700
     45 HO3         -9.3260     4.6280    -3.4720 ho         1 179       0.417000
     46 H2          -6.4590     3.0080    -4.5500 h1         1 179       0.055700
     47 HO2         -6.0300     4.6370    -3.2280 ho         1 179       0.416000
@<TRIPOS>BOND
     1     1     2 ar
     2     1    10 ar
     3     2     3 ar
     4     2     7 ar
     5     3     4 ar
     6     4     5 ar
     7     5     6 ar
     8     6     7 ar
     9     7     8 ar
    10     8     9 ar
    11     9    10 ar
    12    10    11 1
    13    11    12 1
    14    12    13 2
    15    12    14 1
    16    14    15 2
    17    14    16 1
    18    16    17 1
    19    17    18 1
    20    17    26 1
    21    18    19 1
    22    19    20 1
    23    19    22 1
    24    20    21 1
    25    22    23 1
    26    22    24 1
    27    24    25 1
    28    24    26 1
    29    26    27 1
    30     1    28 1
    31     3    29 1
    32     4    30 1
    33     5    31 1
    34     6    32 1
    35     8    33 1
    36     9    34 1
    37    11    35 1
    38    16    36 1
    39    17    37 1
    40    19    38 1
    41    20    39 1
    42    20    40 1
    43    21    41 1
    44    22    42 1
    45    23    43 1
    46    24    44 1
    47    25    45 1
    48    26    46 1
    49    27    47 1
@<TRIPOS>SUBSTRUCTURE
     1 179         1 TEMP              0 ****  ****    0 ROOT
