@<TRIPOS>MOLECULE
17A
   67    69     1     0     0
SMALL
bcc


@<TRIPOS>ATOM
      1 C41         -2.2880     0.5810    -1.5670 ca         1 17A      -0.105500
      2 C42         -1.1230     0.5980    -2.3300 ca         1 17A      -0.132000
      3 C43          0.0920     0.9600    -1.7470 ca         1 17A      -0.114000
      4 C44          0.1390     1.3040    -0.3960 ca         1 17A      -0.132000
      5 C45         -1.0230     1.2830     0.3730 ca         1 17A      -0.105500
      6 C40         -2.2470     0.9220    -0.2070 cp         1 17A      -0.067000
      7 C37         -3.4680     0.9000     0.5950 cp         1 17A       0.057000
      8 C38         -4.6820     1.3530     0.0610 ca         1 17A      -0.152000
      9 C39         -5.8440     1.3260     0.8270 ca         1 17A       0.005000
     10 C36         -3.4410     0.4280     1.9190 ca         1 17A      -0.152000
     11 C35         -4.6030     0.4040     2.6760 ca         1 17A       0.005000
     12 C34         -5.8310     0.8380     2.1430 ca         1 17A      -0.453500
     13 S32         -7.2020     0.6970     3.0510 sy         1 17A       1.437200
     14 O33         -6.9060     0.3560     4.3730 o          1 17A      -0.604800
     15 O32         -8.1780    -0.0560     2.3930 o          1 17A      -0.604800
     16 N31         -7.8130     2.3610     2.9940 ny         1 17A      -0.725900
     17 C27         -7.8330     3.1310     4.2420 c3         1 17A      -0.090700
     18 C28         -6.5640     3.8280     4.7010 c3         1 17A      -0.057700
     19 C30         -5.4300     3.8720     3.6990 c3         1 17A      -0.107100
     20 C29         -6.0640     3.2040     5.9940 c3         1 17A      -0.107100
     21 P24         -9.1490     4.3520     4.0710 p5         1 17A       1.226400
     22 O25        -10.2230     3.4710     3.5230 o          1 17A      -0.835500
     23 O26         -9.2340     5.0710     5.3520 o          1 17A      -0.835500
     24 C15         -8.5580     5.3880     2.8710 c3         1 17A      -0.371600
     25 C1          -9.3480     5.2930     1.5950 c3         1 17A      -0.129400
     26 C2          -8.5850     4.6010     0.4270 c          1 17A       0.955600
     27 O14         -7.5920     3.8510     0.6650 o          1 17A      -0.882800
     28 O13         -8.9880     4.7520    -0.7720 o          1 17A      -0.882800
     29 C3          -9.8640     6.5900     1.0620 ca         1 17A      -0.019300
     30 C8         -10.7620     6.4490    -0.0100 ca         1 17A      -0.081000
     31 C4          -9.4160     7.8750     1.3780 ca         1 17A      -0.089000
     32 C5          -9.7820     8.9670     0.5820 ca         1 17A      -0.132000
     33 C6         -10.4860     8.7780    -0.6060 ca         1 17A      -0.117000
     34 C7         -10.9410     7.4940    -0.9200 ca         1 17A      -0.193300
     35 C9         -11.3870     7.0980    -2.2850 c3         1 17A       0.191100
     36 N10        -10.4060     6.0800    -2.8010 nz         1 17A      -0.860600
     37 H41         -3.2440     0.2910    -2.0300 ha         1 17A       0.138000
     38 H42         -1.1620     0.3240    -3.3950 ha         1 17A       0.136500
     39 H43          1.0110     0.9750    -2.3520 ha         1 17A       0.136000
     40 H44          1.0950     1.5940     0.0650 ha         1 17A       0.136500
     41 H45         -0.9820     1.5620     1.4370 ha         1 17A       0.138000
     42 H38         -4.7180     1.7530    -0.9640 ha         1 17A       0.152500
     43 H39         -6.7800     1.7250     0.3830 ha         1 17A       0.175000
     44 H36         -2.4950     0.0700     2.3530 ha         1 17A       0.152500
     45 H35         -4.5700     0.0360     3.7190 ha         1 17A       0.175000
     46 HN31        -7.3270     2.9490     2.2830 hn         1 17A       0.507300
     47 H27         -8.1830     2.4390     5.0630 hx         1 17A       0.121700
     48 H28         -6.8640     4.8950     4.9380 hc         1 17A       0.087700
     49 H301        -5.7390     4.3040     2.7150 hc         1 17A       0.042200
     50 H302        -5.0140     2.8490     3.5220 hc         1 17A       0.042200
     51 H303        -4.6060     4.5090     4.1050 hc         1 17A       0.042200
     52 H291        -5.8620     2.1140     5.8530 hc         1 17A       0.042200
     53 H292        -5.1230     3.7060     6.3230 hc         1 17A       0.042200
     54 H293        -6.8300     3.3250     6.7980 hc         1 17A       0.042200
     55 H151        -8.6090     6.4240     3.2970 hc         1 17A       0.089200
     56 H152        -7.4770     5.2260     2.6370 hc         1 17A       0.089200
     57 H1         -10.2430     4.6140     1.7790 hc         1 17A       0.122700
     58 H8         -11.2270     5.4630    -0.1800 ha         1 17A       0.145000
     59 H4          -8.7490     8.0450     2.2380 ha         1 17A       0.153000
     60 H5          -9.4600     9.9790     0.8690 ha         1 17A       0.138000
     61 H6         -10.6690     9.6200    -1.2870 ha         1 17A       0.127000
     62 H91        -11.4020     7.9710    -2.9930 hx         1 17A       0.088200
     63 H92        -12.4020     6.6090    -2.2670 hx         1 17A       0.088200
     64 H101       -10.6760     5.7360    -3.7180 hn         1 17A       0.468133
     65 H102        -9.4660     6.4880    -2.8380 hn         1 17A       0.468133
     66 H103       -10.3320     5.2860    -2.1200 hn         1 17A       0.468133
     67 H312        -8.8260     2.3430     2.6860 hn         1 17A       0.507300
@<TRIPOS>BOND
     1     1     2 ar  
     2     1     6 ar  
     3     1    37 1   
     4     2     3 ar  
     5     2    38 1   
     6     3     4 ar  
     7     3    39 1   
     8     4     5 ar  
     9     4    40 1   
    10     5     6 ar  
    11     5    41 1   
    12     6     7 1   
    13     7     8 ar  
    14     7    10 ar  
    15     8     9 ar  
    16     8    42 1   
    17     9    12 ar  
    18     9    43 1   
    19    10    11 ar  
    20    10    44 1   
    21    11    12 ar  
    22    11    45 1   
    23    12    13 1   
    24    13    14 2   
    25    13    15 2   
    26    13    16 1   
    27    16    17 1   
    28    16    46 1   
    29    16    67 1   
    30    17    18 1   
    31    17    21 1   
    32    17    47 1   
    33    18    19 1   
    34    18    20 1   
    35    18    48 1   
    36    19    49 1   
    37    19    50 1   
    38    19    51 1   
    39    20    52 1   
    40    20    53 1   
    41    20    54 1   
    42    21    22 1   
    43    21    23 1   
    44    21    24 1   
    45    24    25 1   
    46    24    55 1   
    47    24    56 1   
    48    25    26 1   
    49    25    29 1   
    50    25    57 1   
    51    26    27 1   
    52    26    28 1   
    53    29    30 ar  
    54    29    31 ar  
    55    30    34 ar  
    56    30    58 1   
    57    31    32 ar  
    58    31    59 1   
    59    32    33 ar  
    60    32    60 1   
    61    33    34 ar  
    62    33    61 1   
    63    34    35 1   
    64    35    36 1   
    65    35    62 1   
    66    35    63 1   
    67    36    64 1   
    68    36    65 1   
    69    36    66 1   
@<TRIPOS>SUBSTRUCTURE
     1 17A         1 TEMP              0 ****  ****    0 ROOT
