@<TRIPOS>MOLECULE
molecule
   66    68     1     0     0
SMALL
bcc


@<TRIPOS>ATOM
      1 C41          0.0000     0.0000     0.0000 ca         1 17A      -0.121000
      2 C42          1.3800     0.0000     0.0000 ca         1 17A      -0.136000
      3 C43          2.0750     0.0000     1.1960 ca         1 17A      -0.144000
      4 C44          1.3910     0.0010     2.3980 ca         1 17A      -0.136000
      5 C45          0.0110     0.0020     2.4110 ca         1 17A      -0.121000
      6 C40         -0.6940     0.0010     1.2090 cp         1 17A      -0.013000
      7 C37         -2.1780     0.0020     1.2150 cp         1 17A      -0.011000
      8 C38         -2.8830    -0.0040     0.0140 ca         1 17A      -0.139500
      9 C39         -4.2630    -0.0030     0.0270 ca         1 17A      -0.010500
     10 C36         -2.8710     0.0020     2.4240 ca         1 17A      -0.139500
     11 C35         -4.2510     0.0040     2.4250 ca         1 17A      -0.010500
     12 C34         -4.9460     0.0040     1.2290 ca         1 17A      -0.271500
     13 S32         -6.7090     0.0050     1.2370 sy         1 17A       1.423200
     14 O33         -7.1040     0.5560     2.4860 o          1 17A      -0.666300
     15 O32         -7.1150     0.5420    -0.0130 o          1 17A      -0.666300
     16 N31         -7.2000    -1.5770     1.2480 n7         1 17A      -0.850100
     17 C27         -6.9030    -2.4280     2.4030 c3         1 17A       0.079300
     18 C28         -8.2050    -2.7770     3.1260 c3         1 17A      -0.068700
     19 C30         -7.8850    -3.5480     4.4080 c3         1 17A      -0.093100
     20 C29         -8.9530    -1.4900     3.4790 c3         1 17A      -0.093100
     21 P24         -6.0930    -3.9600     1.8370 p5         1 17A       0.965400
     22 O25         -7.1860    -4.9230     1.1500 o          1 17A      -0.773500
     23 O26         -5.0410    -3.6270     0.8510 o          1 17A      -0.773500
     24 C15         -5.3430    -4.8130     3.2620 c3         1 17A      -0.240600
     25 C1          -4.4570    -5.9560     2.7640 c3         1 17A      -0.120400
     26 C2          -5.3240    -7.1010     2.3070 c          1 17A       0.885600
     27 O14         -4.7590    -8.2200     1.8260 o          1 17A      -0.806800
     28 O13         -6.5270    -7.0120     2.3730 o          1 17A      -0.806800
     29 C3          -3.5610    -6.4210     3.8830 ca         1 17A       0.042700
     30 C8          -2.1870    -6.3580     3.7390 ca         1 17A      -0.106000
     31 C4          -4.1120    -6.9070     5.0540 ca         1 17A      -0.059000
     32 C5          -3.2890    -7.3330     6.0810 ca         1 17A      -0.134000
     33 C6          -1.9160    -7.2750     5.9350 ca         1 17A      -0.163000
     34 C7          -1.3650    -6.7850     4.7650 ca         1 17A      -0.216300
     35 C9           0.1320    -6.7160     4.6090 c3         1 17A       0.161100
     36 N10          0.6170    -5.4160     5.0920 nz         1 17A      -0.814600
     37 H41         -0.5430    -0.0000    -0.9380 ha         1 17A       0.138000
     38 H42          1.9200    -0.0010    -0.9390 ha         1 17A       0.120000
     39 H43          3.1580    -0.0000     1.1900 ha         1 17A       0.118000
     40 H44          1.9400     0.0010     3.3320 ha         1 17A       0.120000
     41 H45         -0.5230     0.0020     3.3540 ha         1 17A       0.138000
     42 H38         -2.3490    -0.0100    -0.9280 ha         1 17A       0.121500
     43 H39         -4.8120    -0.0060    -0.9070 ha         1 17A       0.151000
     44 H36         -2.3280     0.0020     3.3610 ha         1 17A       0.121500
     45 H35         -4.7910     0.0070     3.3640 ha         1 17A       0.151000
     46 HN31        -7.6750    -1.9580     0.4540 hn         1 17A       0.472800
     47 H27         -6.2430    -1.9000     3.0810 h1         1 17A       0.033700
     48 H28         -8.8240    -3.3890     2.4810 hc         1 17A       0.092700
     49 H301        -7.9750    -4.6120     4.2220 hc         1 17A       0.028867
     50 H302        -6.8740    -3.3210     4.7240 hc         1 17A       0.028867
     51 H303        -8.5800    -3.2580     5.1870 hc         1 17A       0.028867
     52 H291        -9.8040    -1.7270     4.1060 hc         1 17A       0.028867
     53 H292        -9.2960    -1.0100     2.5710 hc         1 17A       0.028867
     54 H293        -8.2880    -0.8210     4.0120 hc         1 17A       0.028867
     55 H151        -4.7420    -4.1110     3.8280 hc         1 17A       0.030700
     56 H152        -6.1240    -5.2120     3.8970 hc         1 17A       0.030700
     57 H1          -3.8510    -5.6090     1.9360 hc         1 17A       0.082700
     58 H8          -1.7560    -5.9740     2.8230 ha         1 17A       0.137000
     59 H4          -5.1880    -6.9520     5.1690 ha         1 17A       0.174000
     60 H5          -3.7210    -7.7150     6.9980 ha         1 17A       0.126000
     61 H6          -1.2710    -7.6090     6.7390 ha         1 17A       0.095000
     62 H91          0.5920    -7.5100     5.1860 hx         1 17A       0.096700
     63 H92          0.3920    -6.8330     3.5640 hx         1 17A       0.096700
     64 H101         1.4990    -5.5370     5.5490 hn         1 17A       0.442133
     65 H102        -0.0440    -5.0330     5.7390 hn         1 17A       0.442133
     66 H103         0.7250    -4.7910     4.3170 hn         1 17A       0.442133
@<TRIPOS>BOND
     1     1     6 ar  
     2     1     2 ar  
     3     1    37 1   
     4     2     3 ar  
     5     2    38 1   
     6     3     4 ar  
     7     3    39 1   
     8     4     5 ar  
     9     4    40 1   
    10     5     6 ar  
    11     5    41 1   
    12     6     7 1   
    13     7    10 ar  
    14     7     8 ar  
    15     8     9 ar  
    16     8    42 1   
    17     9    12 ar  
    18     9    43 1   
    19    10    11 ar  
    20    10    44 1   
    21    11    12 ar  
    22    11    45 1   
    23    12    13 1   
    24    13    16 1   
    25    13    14 2   
    26    13    15 2   
    27    16    17 1   
    28    16    46 1   
    29    17    18 1   
    30    17    21 1   
    31    17    47 1   
    32    18    19 1   
    33    18    20 1   
    34    18    48 1   
    35    19    49 1   
    36    19    50 1   
    37    19    51 1   
    38    20    52 1   
    39    20    53 1   
    40    20    54 1   
    41    21    22 1   
    42    21    24 1   
    43    21    23 1   
    44    24    25 1   
    45    24    55 1   
    46    24    56 1   
    47    25    29 1   
    48    25    26 1   
    49    25    57 1   
    50    26    27 1   
    51    26    28 1   
    52    29    30 ar  
    53    29    31 ar  
    54    30    34 ar  
    55    30    58 1   
    56    31    32 ar  
    57    31    59 1   
    58    32    33 ar  
    59    32    60 1   
    60    33    34 ar  
    61    33    61 1   
    62    34    35 1   
    63    35    36 1   
    64    35    62 1   
    65    35    63 1   
    66    36    64 1   
    67    36    65 1   
    68    66    36 1   
@<TRIPOS>SUBSTRUCTURE
     1 17A         1 TEMP              0 ****  ****    0 ROOT
