@<TRIPOS>MOLECULE
17B
   39    39     1     0     0
SMALL
bcc


@<TRIPOS>ATOM
      1 C8          -0.3480    -0.2020    -0.2240 c3         1 17B      -0.116400
      2 C2          -3.6090     1.1570     4.6780 c3         1 17B       0.082800
      3 C3          -2.6730     1.8000     5.7240 c3         1 17B       0.116100
      4 C4          -2.0220     3.1040     5.2310 c3         1 17B       0.114100
      5 C5          -2.6050     3.5700     3.8740 c3         1 17B       0.171500
      6 C6          -1.8330     4.8150     3.3870 c3         1 17B       0.119400
      7 O2          -3.8410    -0.1510     5.1580 oh         1 17B      -0.593800
      8 O3          -1.6000     0.9350     6.0550 oh         1 17B      -0.610800
      9 O4          -2.2720     4.1620     6.1400 oh         1 17B      -0.594800
     10 N5          -2.6190     2.5210     2.8780 nu         1 17B      -0.839200
     11 O6          -0.5030     4.4920     3.0310 oh         1 17B      -0.615800
     12 N1           1.9080    -1.0780     0.4440 nz         1 17B      -0.840600
     13 C7           1.1600    -0.0790    -0.3790 c3         1 17B       0.103800
     14 C10         -2.3470     0.1030     1.2370 c3         1 17B       0.132800
     15 C9          -0.8120     0.0770     1.1880 c3         1 17B      -0.114400
     16 N2          -2.9050     0.1330     2.5550 n2         1 17B      -0.691900
     17 C1          -2.9750     1.2200     3.2740 c2         1 17B       0.606200
     18 H8C1        -0.8060     0.5490    -0.9280 hc         1 17B       0.092700
     19 H8C2        -0.7000    -1.2160    -0.5550 hc         1 17B       0.092700
     20 H7C1         1.5000     0.9480    -0.0560 hx         1 17B       0.112700
     21 H7C2         1.4520    -0.2390    -1.4570 hx         1 17B       0.112700
     22 H9C1        -0.4020     1.0590     1.5390 hc         1 17B       0.045200
     23 H9C2        -0.4420    -0.7180     1.8870 hc         1 17B       0.045200
     24 H2          -4.5850     1.7220     4.6340 h1         1 17B       0.075700
     25 H3          -3.2880     2.0010     6.6490 h1         1 17B       0.071700
     26 HA          -4.3480    -0.6340     4.4920 ho         1 17B       0.440000
     27 H4          -0.9100     2.9410     5.1380 h1         1 17B       0.056700
     28 HB          -1.9840     0.0840     6.3110 ho         1 17B       0.436000
     29 H5          -3.6770     3.8890     4.0540 h1         1 17B       0.090700
     30 HC          -1.9140     3.8900     6.9960 ho         1 17B       0.423000
     31 H6C1        -2.2960     5.2200     2.4460 h1         1 17B       0.078200
     32 H6C2        -1.8690     5.5900     4.1970 h1         1 17B       0.078200
     33 H6           0.0200     4.4960     3.8410 ho         1 17B       0.408000
     34 H1N1         1.6830    -0.9460     1.4370 hn         1 17B       0.462133
     35 H1N2         2.9170    -0.9640     0.3090 hn         1 17B       0.462133
     36 H101        -2.7300    -0.8570     0.7800 h1         1 17B       0.054700
     37 H102        -2.7060     0.9490     0.5830 h1         1 17B       0.054700
     38 H1N3        -1.9000     2.6040     2.1900 hn         1 17B       0.414800
     39 H13          1.6370    -2.0290     0.1750 hn         1 17B       0.462133
@<TRIPOS>BOND
     1     1    13 1   
     2     1    15 1   
     3     1    18 1   
     4     1    19 1   
     5     2     3 1   
     6     2     7 1   
     7     2    17 1   
     8     2    24 1   
     9     3     4 1   
    10     3     8 1   
    11     3    25 1   
    12     4     5 1   
    13     4     9 1   
    14     4    27 1   
    15     5     6 1   
    16     5    10 1   
    17     5    29 1   
    18     6    11 1   
    19     6    31 1   
    20     6    32 1   
    21     7    26 1   
    22     8    28 1   
    23     9    30 1   
    24    10    17 1   
    25    10    38 1   
    26    11    33 1   
    27    12    13 1   
    28    12    34 1   
    29    12    35 1   
    30    12    39 1   
    31    13    20 1   
    32    13    21 1   
    33    14    15 1   
    34    14    16 1   
    35    14    36 1   
    36    14    37 1   
    37    15    22 1   
    38    15    23 1   
    39    16    17 2   
@<TRIPOS>SUBSTRUCTURE
     1 17B         1 TEMP              0 ****  ****    0 ROOT
