@<TRIPOS>MOLECULE
molecule
   39    39     1     0     0
SMALL
bcc


@<TRIPOS>ATOM
      1 C8           0.0000     0.0000     0.0000 c3         1 17B      -0.113400
      2 C2          -3.7090     1.0470     4.6970 c3         1 17B       0.098800
      3 C3          -5.1760     1.4920     4.6670 c3         1 17B       0.137100
      4 C4          -5.2850     2.8260     3.9240 c3         1 17B       0.127100
      5 C5          -4.8250     2.6420     2.4740 c3         1 17B       0.244500
      6 C6          -4.8520     3.9910     1.7530 c3         1 17B       0.129400
      7 O2          -2.9400     1.9730     5.4680 oh         1 17B      -0.577800
      8 O3          -5.6520     1.6520     6.0050 oh         1 17B      -0.583800
      9 O4          -6.6440     3.2690     3.9390 oh         1 17B      -0.600800
     10 N5          -3.4530     2.1120     2.4770 nu         1 17B      -0.942200
     11 O6          -4.5340     3.8000     0.3720 oh         1 17B      -0.624800
     12 N1           2.0190    -0.0000    -1.3850 nz         1 17B      -0.811600
     13 C7           1.5300     0.0000     0.0000 c3         1 17B       0.090800
     14 C10         -2.0400     0.0000     1.4420 c3         1 17B       0.123800
     15 C9          -0.5100     0.0000     1.4420 c3         1 17B      -0.075400
     16 N2          -2.5280     0.0010     2.8230 n2         1 17B      -0.678900
     17 C1          -3.1910     1.0160     3.2740 c2         1 17B       0.631200
     18 H8C1        -0.3610     0.8850    -0.5110 hc         1 17B       0.065700
     19 H8C2        -0.3610    -0.8850    -0.5110 hc         1 17B       0.065700
     20 H7C1         1.8910     0.8850     0.5100 hx         1 17B       0.113200
     21 H7C2         1.8910    -0.8840     0.5110 hx         1 17B       0.113200
     22 H9C1        -0.1490    -0.8850     1.9530 hc         1 17B       0.063200
     23 H9C2        -0.1490     0.8840     1.9530 hc         1 17B       0.063200
     24 H2          -3.6390     0.0570     5.1300 h1         1 17B       0.070700
     25 H3          -5.7680     0.7450     4.1540 h1         1 17B       0.058700
     26 HA          -2.3210     1.5010     6.0000 ho         1 17B       0.413000
     27 H4          -4.6550     3.5610     4.4100 h1         1 17B       0.071700
     28 HB          -6.2400     0.9450     6.2160 ho         1 17B       0.412000
     29 H5          -5.4820     1.9420     1.9720 h1         1 17B       0.073700
     30 HC          -6.7260     4.0120     4.5140 ho         1 17B       0.420000
     31 H6C1        -4.1240     4.6550     2.2020 h1         1 17B       0.043700
     32 H6C2        -5.8400     4.4270     1.8380 h1         1 17B       0.043700
     33 H6          -4.7640     4.5740    -0.1140 ho         1 17B       0.413000
     34 H1N1         1.6860    -0.8180    -1.8560 hn         1 17B       0.456467
     35 H1N2         1.6850     0.8160    -1.8570 hn         1 17B       0.456467
     36 H101        -2.4010    -0.8850     0.9320 h1         1 17B       0.050700
     37 H102        -2.4010     0.8840     0.9310 h1         1 17B       0.050700
     38 H1N3        -2.7340     2.5310     1.9210 hn         1 17B       0.447800
     39 H13          3.0200    -0.0190    -1.3850 hn         1 17B       0.456467
@<TRIPOS>BOND
     1     1    13 1
     2     1    15 1
     3     2     3 1
     4     2     7 1
     5     2    17 1
     6     3     4 1
     7     3     8 1
     8     4     5 1
     9     4     9 1
    10     5     6 1
    11     5    10 1
    12     6    11 1
    13    10    17 1
    14    12    13 1
    15    14    15 1
    16    14    16 1
    17    16    17 2
    18     1    18 1
    19     1    19 1
    20    13    20 1
    21    13    21 1
    22    15    22 1
    23    15    23 1
    24     2    24 1
    25     3    25 1
    26     7    26 1
    27     4    27 1
    28     8    28 1
    29     5    29 1
    30     9    30 1
    31     6    31 1
    32     6    32 1
    33    11    33 1
    34    12    34 1
    35    12    35 1
    36    10    38 1
    37    14    36 1
    38    14    37 1
    39    39    12 1
@<TRIPOS>SUBSTRUCTURE
     1 17B         1 TEMP              0 ****  ****    0 ROOT
