@<TRIPOS>MOLECULE
molecule
   28    29     1     0     0
SMALL
bcc


@<TRIPOS>ATOM
      1 OAA          0.0000     0.0000     0.0000 o          1 17C      -0.837800
      2 OAB          6.7100     1.5130    -3.0140 o          1 17C      -0.837800
      3 OAC          1.9550    -0.0390    -1.0520 o          1 17C      -0.837800
      4 OAD          4.7340     1.5200    -2.0010 o          1 17C      -0.837800
      5 CAE          3.4710     0.1400     3.6780 ca         1 17C      -0.128000
      6 CAF          7.1850    -1.7680     0.8050 ca         1 17C      -0.128000
      7 CAG          2.0930     0.0000     3.6770 ca         1 17C      -0.230500
      8 CAH          8.0190    -1.3940    -0.2370 ca         1 17C      -0.230500
      9 CAI          4.1650     0.2350     2.4880 ca         1 17C      -0.226000
     10 CAJ          5.9220    -1.2250     0.9190 ca         1 17C      -0.226000
     11 CAK          1.3970    -0.0470     2.4880 ca         1 17C      -0.071500
     12 CAL          7.5980    -0.4700    -1.1680 ca         1 17C      -0.071500
     13 CAN          1.3480     0.0000     0.0000 c          1 17C       0.888700
     14 CAO          5.8690     1.0870    -2.0530 c          1 17C       0.888700
     15 CAP          3.4820     0.1860     1.2780 ca         1 17C       0.212100
     16 CAQ          5.4770    -0.2970    -0.0130 ca         1 17C       0.212100
     17 CAR          2.0850     0.0490     1.2750 ca         1 17C      -0.163600
     18 CAS          6.3230     0.0940    -1.0640 ca         1 17C      -0.163600
     19 HAE          4.0080     0.1770     4.6180 ha         1 17C       0.085500
     20 HAF          7.5260    -2.4940     1.5340 ha         1 17C       0.085500
     21 HAG          1.5590    -0.0740     4.6160 ha         1 17C       0.085000
     22 HAH          9.0080    -1.8290    -0.3180 ha         1 17C       0.085000
     23 HAI          5.2420     0.3440     2.4960 ha         1 17C       0.128500
     24 HAJ          5.2770    -1.5230     1.7360 ha         1 17C       0.128500
     25 HAK          0.3190    -0.1570     2.4940 ha         1 17C       0.139000
     26 HAL          8.2550    -0.1810    -1.9800 ha         1 17C       0.139000
     27 HNAM         3.7610     0.7400    -0.7060 hn         1 17C       0.543800
     28 NAM          4.1780     0.2810     0.0800 nu         1 17C      -0.631000
@<TRIPOS>BOND
     1    13     1 1
     2    14     2 1
     3     3    13 1
     4     4    14 1
     5     7     5 ar
     6     5     9 ar
     7     5    19 1
     8    10     6 ar
     9     6     8 ar
    10     6    20 1
    11    11     7 ar
    12     7    21 1
    13    12     8 ar
    14     8    22 1
    15    15     9 ar
    16     9    23 1
    17    16    10 ar
    18    10    24 1
    19    11    17 ar
    20    11    25 1
    21    18    12 ar
    22    12    26 1
    23    15    28 1
    24    28    16 1
    25    28    27 1
    26    13    17 1
    27    14    18 1
    28    17    15 ar
    29    16    18 ar
@<TRIPOS>SUBSTRUCTURE
     1 17C         1 TEMP              0 ****  ****    0 ROOT
