@<TRIPOS>MOLECULE
17C
   28    29     1     0     0
SMALL
bcc


@<TRIPOS>ATOM
      1 OAA         -0.0710     0.7110     0.0770 o          1 17C      -0.838550
      2 OAB         -2.3690    -4.9590     1.1250 o          1 17C      -0.838550
      3 OAC          1.9640     1.2640    -0.6310 o          1 17C      -0.838550
      4 OAD         -1.6570    -3.1450     0.0490 o          1 17C      -0.838550
      5 CAE          3.1260    -1.0260     3.6560 ca         1 17C      -0.132000
      6 CAF         -1.9520    -1.8450     4.9940 ca         1 17C      -0.132000
      7 CAG          3.7590    -0.0670     2.8710 ca         1 17C      -0.222000
      8 CAH         -2.8550    -2.8590     4.6860 ca         1 17C      -0.222000
      9 CAI          1.8620    -1.4890     3.3180 ca         1 17C      -0.219500
     10 CAJ         -1.0310    -1.4150     4.0470 ca         1 17C      -0.219500
     11 CAK          3.0980     0.4290     1.7480 ca         1 17C      -0.090000
     12 CAL         -2.8180    -3.4360     3.4180 ca         1 17C      -0.090000
     13 CAN          1.1860     0.6900     0.1900 c          1 17C       0.910700
     14 CAO         -1.9670    -3.7540     1.1080 c          1 17C       0.910700
     15 CAP          1.1750    -0.9960     2.1740 ca         1 17C       0.211600
     16 CAQ         -0.9800    -1.9940     2.7520 ca         1 17C       0.211600
     17 CAR          1.8190     0.0040     1.3900 ca         1 17C      -0.167600
     18 CAS         -1.9060    -3.0290     2.4440 ca         1 17C      -0.167600
     19 HAE          3.6280    -1.4290     4.5470 ha         1 17C       0.086500
     20 HAF         -1.9680    -1.3740     5.9860 ha         1 17C       0.086500
     21 HAG          4.7620     0.2930     3.1300 ha         1 17C       0.088500
     22 HAH         -3.5830    -3.2010     5.4320 ha         1 17C       0.088500
     23 HAI          1.3900    -2.2630     3.9420 ha         1 17C       0.124000
     24 HAJ         -0.3370    -0.6020     4.3060 ha         1 17C       0.124000
     25 HAK          3.5790     1.1850     1.1050 ha         1 17C       0.138000
     26 HAL         -3.5060    -4.2580     3.1590 ha         1 17C       0.138000
     27 HNAM        -0.3870    -1.3960     0.8690 hn         1 17C       0.513800
     28 NAM         -0.0470    -1.5540     1.8080 nu         1 17C      -0.619000
@<TRIPOS>BOND
     1     1    13 1   
     2     2    14 1   
     3     3    13 1   
     4     4    14 1   
     5     5     7 ar  
     6     5     9 ar  
     7     5    19 1   
     8     6     8 ar  
     9     6    10 ar  
    10     6    20 1   
    11     7    11 ar  
    12     7    21 1   
    13     8    12 ar  
    14     8    22 1   
    15     9    15 ar  
    16     9    23 1   
    17    10    16 ar  
    18    10    24 1   
    19    11    17 ar  
    20    11    25 1   
    21    12    18 ar  
    22    12    26 1   
    23    13    17 1   
    24    14    18 1   
    25    15    17 ar  
    26    15    28 1   
    27    16    18 ar  
    28    16    28 1   
    29    27    28 1   
@<TRIPOS>SUBSTRUCTURE
     1 17C         1 TEMP              0 ****  ****    0 ROOT
