@<TRIPOS>MOLECULE
17D
   27    26     1     0     0
SMALL
bcc


@<TRIPOS>ATOM
      1 OAA         0.9520    0.4310    0.2380 o         1 17D     -0.817800
      2 OAB         1.9300   -1.5790    0.1740 o         1 17D     -0.817800
      3 CAC        -3.0710   -0.6420    5.8820 ce        1 17D     -0.073700
      4 CAD        -2.4450    0.5460    5.7790 cf        1 17D     -0.066000
      5 CAE        -2.8180   -1.7970    5.1330 cg        1 17D     -0.157300
      6 CAF         5.4260    0.4740    0.0850 c1        1 17D     -0.227500
      7 CAG         4.6460    0.3500    0.9870 cg        1 17D     -0.089300
      8 CAH        -1.3710    0.9460    4.9090 cf        1 17D     -0.217000
      9 CAI        -2.6280   -2.8000    4.5040 c1        1 17D     -0.157500
     10 CAJ         2.0130   -0.9890    4.2510 c2        1 17D     -0.262000
     11 CAK         3.7690    0.2210    2.0730 ce        1 17D     -0.087700
     12 CAM         1.7370   -0.4500    0.6940 c         1 17D      0.913800
     13 CAN        -0.6330    0.1420    4.1230 c2        1 17D     -0.070200
     14 CAO         1.6610   -0.2090    3.2200 cf        1 17D     -0.034200
     15 CAP         2.4700   -0.1260    1.9980 cf        1 17D     -0.072200
     16 HAE        -2.4430   -3.6730    3.9320 ha        1 17D      0.165500
     17 HAF         2.9220   -1.6010    4.2310 ha        1 17D      0.103500
     18 HAG         6.0920    0.5720   -0.7290 ha        1 17D      0.145500
     19 HAH        -1.1580    2.0310    4.9200 ha        1 17D      0.115000
     20 HAI        -0.8060   -0.9480    4.0870 ha        1 17D      0.139000
     21 HAJ         1.4030   -1.0770    5.1580 ha        1 17D      0.103500
     22 HAK         4.2300    0.4410    3.0550 ha        1 17D      0.103000
     23 HAC        -3.8850   -0.7550    6.6230 ha        1 17D      0.119000
     24 CAL         0.4330    0.6410    3.2270 c3        1 17D     -0.056000
     25 HAD        -2.7960    1.3550    6.4510 ha        1 17D      0.106000
     26 HAL         0.0220    0.6840    2.1680 hc        1 17D      0.096700
     27 HALA        0.7330    1.6910    3.4980 hc        1 17D      0.096700
@<TRIPOS>BOND
     1    1   12 1   
     2    2   12 1   
     3    3    4 2   
     4    3    5 1   
     5    3   23 1   
     6    4    8 1   
     7    4   25 1   
     8    5    9 3   
     9    6    7 3   
    10    6   18 1   
    11    7   11 1   
    12    8   13 2   
    13    8   19 1   
    14    9   16 1   
    15   10   14 2   
    16   10   17 1   
    17   10   21 1   
    18   11   15 2   
    19   11   22 1   
    20   12   15 1   
    21   13   20 1   
    22   13   24 1   
    23   14   15 1   
    24   14   24 1   
    25   24   26 1   
    26   24   27 1   
@<TRIPOS>SUBSTRUCTURE
     1 17D         1 TEMP              0 ****  ****    0 ROOT
