@<TRIPOS>MOLECULE
17D
   27    28     1     0     0
SMALL
bcc


@<TRIPOS>ATOM
      1 OAA          0.0980     0.6940     0.3250 o          1 17D      -0.830800
      2 OAB          2.0810     1.4130    -0.3940 o          1 17D      -0.830800
      3 CAC          7.6070     0.8910    -0.3180 ca         1 17D      -0.153000
      4 CAD          6.4310     1.6370    -0.4100 ca         1 17D      -0.147000
      5 CAE          7.5410    -0.4850    -0.1160 ca         1 17D      -0.147000
      6 CAF          3.1310    -1.4440     3.6890 ca         1 17D      -0.161000
      7 CAG          2.0040    -0.6410     3.8760 ca         1 17D      -0.158000
      8 CAH          5.1910     1.0120    -0.3040 ca         1 17D      -0.126000
      9 CAI          6.3010    -1.1170    -0.0080 ca         1 17D      -0.126000
     10 CAJ          3.6960    -1.5530     2.4230 ca         1 17D      -0.146000
     11 CAK          1.4570     0.0430     2.7950 ca         1 17D      -0.111000
     12 CAM          1.3580     0.7380     0.3960 c          1 17D       0.908200
     13 CAN          5.1200    -0.3740    -0.1020 ca         1 17D      -0.052300
     14 CAO          3.1540    -0.8600     1.3310 ca         1 17D      -0.060300
     15 CAP          2.0250    -0.0490     1.5160 ca         1 17D      -0.103600
     16 HAE          8.4640    -1.0760    -0.0410 ha         1 17D       0.113500
     17 HAF          3.5680    -1.9870     4.5380 ha         1 17D       0.102000
     18 HAG          1.5500    -0.5550     4.8720 ha         1 17D       0.104000
     19 HAH          4.2410     1.5840    -0.3740 ha         1 17D       0.161500
     20 HAI          6.2520    -2.2030     0.1560 ha         1 17D       0.161500
     21 HAJ          4.5850    -2.1840     2.2710 ha         1 17D       0.108000
     22 HAK          0.5540     0.6610     2.9180 ha         1 17D       0.141000
     23 HAC          8.5830     1.3890    -0.4020 ha         1 17D       0.108000
     24 CAL          3.7840    -1.0320    -0.0110 c3         1 17D      -0.001800
     25 HAD          6.4810     2.7240    -0.5670 ha         1 17D       0.113500
     26 HAL          3.1100    -0.5810    -0.7960 hc         1 17D       0.066700
     27 HALA         3.8870    -2.1300    -0.2270 hc         1 17D       0.066700
@<TRIPOS>BOND
     1     1    12 1   
     2     2    12 1   
     3     3     4 ar  
     4     3     5 ar  
     5     3    23 1   
     6     4     8 ar  
     7     4    25 1   
     8     5     9 ar  
     9     5    16 1   
    10     6     7 ar  
    11     6    10 ar  
    12     6    17 1   
    13     7    11 ar  
    14     7    18 1   
    15     8    13 ar  
    16     8    19 1   
    17     9    13 ar  
    18     9    20 1   
    19    10    14 ar  
    20    10    21 1   
    21    11    15 ar  
    22    11    22 1   
    23    12    15 1   
    24    13    24 1   
    25    14    15 ar  
    26    14    24 1   
    27    24    26 1   
    28    24    27 1   
@<TRIPOS>SUBSTRUCTURE
     1 17D         1 TEMP              0 ****  ****    0 ROOT
