@<TRIPOS>MOLECULE
molecule
   27    28     1     0     0
SMALL
bcc


@<TRIPOS>ATOM
      1 OAA          0.0000     0.0000     0.0000 o          1 17D      -0.839800
      2 OAB          1.8880     0.0540    -1.1650 o          1 17D      -0.839800
      3 CAC         -1.6550    -0.6170     6.4980 ca         1 17D      -0.154000
      4 CAD         -1.4380     0.6180     5.9180 ca         1 17D      -0.137500
      5 CAE         -1.4110    -1.7720     5.7780 ca         1 17D      -0.137500
      6 CAF          3.3380    -0.1750     3.6730 ca         1 17D      -0.151000
      7 CAG          4.0290     0.0000     2.4870 ca         1 17D      -0.169000
      8 CAH         -0.9790     0.7000     4.6160 ca         1 17D      -0.128000
      9 CAI         -0.9590    -1.6900     4.4730 ca         1 17D      -0.128000
     10 CAJ          1.9600    -0.2930     3.6690 ca         1 17D      -0.160000
     11 CAK          3.3440     0.0580     1.2900 ca         1 17D      -0.091000
     12 CAM          1.2140     0.0000     0.0000 c          1 17D       0.884200
     13 CAN         -0.7380    -0.4540     3.8950 ca         1 17D      -0.059300
     14 CAO          1.2640    -0.2360     2.4790 ca         1 17D      -0.057300
     15 CAP          1.9530    -0.0610     1.2770 ca         1 17D      -0.107600
     16 HAE         -1.5830    -2.7410     6.2320 ha         1 17D       0.114000
     17 HAF          3.8800    -0.2200     4.6100 ha         1 17D       0.100000
     18 HAG          5.1080     0.0920     2.4980 ha         1 17D       0.103000
     19 HAH         -0.8070     1.6680     4.1610 ha         1 17D       0.134500
     20 HAI         -0.7690    -2.5950     3.9080 ha         1 17D       0.134500
     21 HAJ          1.4260    -0.4290     4.6010 ha         1 17D       0.119000
     22 HAK          3.8850     0.1950     0.3610 ha         1 17D       0.152000
     23 HAC         -2.0120    -0.6810     7.5190 ha         1 17D       0.111000
     24 CAL         -0.2380    -0.3660     2.4760 c3         1 17D       0.019200
     25 HAD         -1.6290     1.5230     6.4820 ha         1 17D       0.114000
     26 HAL         -0.5220    -1.2620     1.9370 hc         1 17D       0.088200
     27 HALA        -0.6740     0.5000     1.9930 hc         1 17D       0.088200
@<TRIPOS>BOND
     1     1    12 1   
     2    12     2 1   
     3     4     3 ar  
     4     3     5 ar  
     5     3    23 1   
     6     8     4 ar  
     7     4    25 1   
     8     9     5 ar  
     9     5    16 1   
    10     6     7 ar  
    11     6    10 ar  
    12     6    17 1   
    13     7    11 ar  
    14     7    18 1   
    15     8    13 ar  
    16     8    19 1   
    17    13     9 ar  
    18     9    20 1   
    19    10    14 ar  
    20    10    21 1   
    21    11    15 ar  
    22    11    22 1   
    23    14    24 1   
    24    24    13 1   
    25    24    26 1   
    26    24    27 1   
    27    15    12 1   
    28    14    15 ar  
@<TRIPOS>SUBSTRUCTURE
     1 17D         1 TEMP              0 ****  ****    0 ROOT
