@<TRIPOS>MOLECULE
17E
   17    18     1     0     0
SMALL
bcc


@<TRIPOS>ATOM
      1 N1           0.0000     0.0000     0.0000 ns         1 17E       0.257000
      2 C2           1.3450     0.0000     0.0000 c2         1 17E       0.166000
      3 O2           1.9460    -0.0000    -1.0620 o          1 17E      -0.287000
      4 N3           2.0330     0.0000     1.1410 n2         1 17E       0.021000
      5 C4           1.4050     0.0000     2.3100 c2         1 17E      -0.181000
      6 N4           2.1250     0.0010     3.4820 nz         1 17E       0.461000
      7 C5          -0.0040     0.0000     2.3440 c2         1 17E      -0.328000
      8 C6          -0.6900     0.0000     1.1750 c2         1 17E      -0.016000
      9 CM5         -0.7380    -0.0010     3.6600 c3         1 17E      -0.047000
     10 H1           1.8980    -0.8160     4.0130 hn         1 17E       0.099000
     11 H2           1.8970     0.8180     4.0120 DU         1 17E       0.195000
     12 H4          -1.7730    -0.0000     1.1750 h4         1 17E       0.158000
     13 H5          -0.4690     0.8830     4.2250 hc         1 17E       0.060000
     14 H6          -0.4680    -0.8860     4.2240 hc         1 17E       0.060000
     15 H7          -1.8060    -0.0010     3.4780 hc         1 17E       0.060000
     16 H8          -0.4970    -0.0000    -0.8690 hn         1 17E       0.126000
     17 H43          1.5970     0.4610     4.1970 DU         1 17E       0.195000
@<TRIPOS>BOND
     1     1     2 1   
     2     1     8 1   
     3     1    16 1   
     4     2     3 1   
     5     2     4 1   
     6     4     5 1   
     7     5     6 1   
     8     5     7 1   
     9     6    10 1   
    10     6    11 1   
    11     6    17 1   
    12     7     8 1   
    13     7     9 1   
    14     8    12 1   
    15     9    13 1   
    16     9    14 1   
    17     9    15 1   
    18    11    17 1   
@<TRIPOS>SUBSTRUCTURE
     1 17E         1 TEMP              0 ****  ****    0 ROOT
