@<TRIPOS>MOLECULE
17E
   17    17     1     0     0
SMALL
bcc


@<TRIPOS>ATOM
      1 N1          -0.0440    -0.0010    -0.0370 ns         1 17E      -0.429100
      2 C2           1.3930     0.0030    -0.0840 c          1 17E       0.822900
      3 O2           1.9580     0.0090    -1.1810 o          1 17E      -0.493500
      4 N3           2.1080    -0.0010     1.1510 nc         1 17E      -0.615100
      5 C4           1.4100    -0.0070     2.2680 cd         1 17E       0.609500
      6 N4           2.1790    -0.0110     3.5420 nz         1 17E      -0.801600
      7 C5          -0.0290    -0.0110     2.3660 cd         1 17E      -0.374800
      8 C6          -0.7050    -0.0070     1.1470 cc         1 17E       0.125600
      9 CM5         -0.7420    -0.0180     3.6540 c3         1 17E      -0.055900
     10 H1           3.1950    -0.0060     3.3720 hn         1 17E       0.480467
     11 H2           1.9210    -0.8530     4.0710 hn         1 17E       0.480467
     12 H4          -1.8160    -0.0100     1.1150 h4         1 17E       0.201000
     13 H5          -1.8510    -0.0210     3.4950 hc         1 17E       0.062700
     14 H6          -0.4930     0.8910     4.2590 hc         1 17E       0.062700
     15 H7          -0.4880    -0.9310     4.2510 hc         1 17E       0.062700
     16 H8          -0.5340     0.0020    -0.9110 hn         1 17E       0.380500
     17 H43          1.9150     0.8240     4.0800 hn         1 17E       0.480467
@<TRIPOS>BOND
     1     1     2 1   
     2     1     8 1   
     3     1    16 1   
     4     2     3 2   
     5     2     4 1   
     6     4     5 2   
     7     5     6 1   
     8     5     7 1   
     9     6    10 1   
    10     6    11 1   
    11     6    17 1   
    12     7     8 2   
    13     7     9 1   
    14     8    12 1   
    15     9    13 1   
    16     9    14 1   
    17     9    15 1   
@<TRIPOS>SUBSTRUCTURE
     1 17E         1 TEMP              0 ****  ****    0 ROOT
