@<TRIPOS>MOLECULE
molecule
   17    17     1     0     0
SMALL
bcc


@<TRIPOS>ATOM
      1 N1           0.0000     0.0000     0.0000 ns         1 17E      -0.408100
      2 C2           1.3450     0.0000     0.0000 c          1 17E       0.811900
      3 O2           1.9460    -0.0000    -1.0620 o          1 17E      -0.511500
      4 N3           2.0330     0.0000     1.1410 nc         1 17E      -0.541100
      5 C4           1.4050     0.0000     2.3100 cd         1 17E       0.561500
      6 N4           2.1250     0.0010     3.4820 nz         1 17E      -0.831600
      7 C5          -0.0040     0.0000     2.3440 cd         1 17E      -0.440800
      8 C6          -0.6900     0.0000     1.1750 cc         1 17E       0.134600
      9 CM5         -0.7380    -0.0010     3.6600 c3         1 17E      -0.061900
     10 H1           1.8980    -0.8160     4.0130 hn         1 17E       0.508133
     11 H2           1.8970     0.8180     4.0120 hn         1 17E       0.508133
     12 H4          -1.7730    -0.0000     1.1750 h4         1 17E       0.199000
     13 H5          -0.4690     0.8830     4.2250 hc         1 17E       0.059700
     14 H6          -0.4680    -0.8860     4.2240 hc         1 17E       0.059700
     15 H7          -1.8060    -0.0010     3.4780 hc         1 17E       0.059700
     16 H8          -0.4970    -0.0000    -0.8690 hn         1 17E       0.381500
     17 H43          1.5970     0.4610     4.1970 hn         1 17E       0.508133
@<TRIPOS>BOND
     1     3     2 2
     2     2     4 1
     3     2     1 1
     4     4     5 2
     5     1     8 1
     6     5     6 1
     7     5     7 1
     8     8     7 2
     9     7     9 1
    10     6    10 1
    11     6    11 1
    12     8    12 1
    13     9    13 1
    14     9    14 1
    15     9    15 1
    16     1    16 1
    17    17     6 1
@<TRIPOS>SUBSTRUCTURE
     1 17E         1 TEMP              0 ****  ****    0 ROOT
