@<TRIPOS>MOLECULE
17F
  130   129     1     0     0
SMALL
bcc


@<TRIPOS>ATOM
      1 C1          0.1660   -1.1010    0.5150 c3        1 17F      0.168400
      2 N1          1.0580   -3.3090    1.3320 n3        1 17F     -0.922800
      3 O1         -3.3580   -0.8520    1.0300 o         1 17F     -0.841000
      4 P1         -2.2600   -1.8380    1.1360 p5        1 17F      1.433800
      5 C2          1.2200   -2.2220    0.3830 c3        1 17F      0.018500
      6 O2         -1.6560   -2.2490    2.4180 o         1 17F     -0.841000
      7 C3          2.6310   -1.5620    0.4290 c         1 17F      0.909600
      8 O3         -1.0910   -1.5180    0.0440 os        1 17F     -0.592200
      9 C4         -4.1760   -3.3910    0.2770 c3        1 17F      0.207400
     10 O4          3.2050   -1.4020    1.5450 o         1 17F     -0.862300
     11 C5         -4.6030   -4.7590    0.8540 c3        1 17F      0.097100
     12 O5          3.1500   -1.2150   -0.6730 o         1 17F     -0.862300
     13 C6         -4.1350   -5.9620    0.0360 c3        1 17F      0.122400
     14 O6         -2.8110   -3.2000    0.3340 os        1 17F     -0.553200
     15 C7         -2.1300   -5.6040   -1.2360 c         1 17F      0.675100
     16 O7         -2.7150   -6.0030   -0.0580 os        1 17F     -0.423900
     17 C8         -0.7140   -5.1700   -1.0580 c3        1 17F     -0.143400
     18 O8         -2.8090   -5.6750   -2.2660 o         1 17F     -0.600000
     19 C9          0.1760   -5.6430   -2.1870 c3        1 17F     -0.063400
     20 O9         -4.0640   -4.8070    2.1830 os        1 17F     -0.370900
     21 C10         1.4800   -4.8740   -2.1710 c3        1 17F     -0.098400
     22 O10        -5.5620   -6.3740    2.7820 o         1 17F     -0.607000
     23 C11         2.4970   -5.4620   -3.1240 c3        1 17F     -0.065400
     24 C12         3.7890   -4.6750   -3.0620 c3        1 17F     -0.092400
     25 C17        -4.5890   -5.6700    3.0840 c         1 17F      0.637100
     26 C18        -3.8420   -5.6220    4.3850 c3        1 17F     -0.139400
     27 C19        -4.7930   -5.6250    5.5610 c3        1 17F     -0.072400
     28 C20        -4.0270   -5.6620    6.8670 c3        1 17F     -0.081400
     29 C1X         4.8120   -5.2030   -4.0440 c3        1 17F     -0.069400
     30 C1Y        -4.9670   -5.6510    8.0530 c3        1 17F     -0.077400
     31 C1Z        -4.2010   -5.6760    9.3590 c3        1 17F     -0.080400
     32 C2X         6.0960   -4.4020   -3.9630 c3        1 17F     -0.061200
     33 C21         7.1290   -4.8800   -4.9100 c2        1 17F     -0.152200
     34 C22         8.3470   -4.3370   -5.0170 c2        1 17F     -0.202200
     35 C23         8.8030   -3.1900   -4.1970 c3        1 17F     -0.049200
     36 C24        10.2160   -2.7640   -4.5360 c3        1 17F     -0.072400
     37 C25        10.6510   -1.5920   -3.6820 c3        1 17F     -0.083400
     38 C26        12.0620   -1.1610   -4.0160 c3        1 17F     -0.076400
     39 C27        12.4950    0.0110   -3.1610 c3        1 17F     -0.081400
     40 C28        13.9060    0.4450   -3.4930 c3        1 17F     -0.077400
     41 C29        14.3380    1.6170   -2.6370 c3        1 17F     -0.082400
     42 C30        15.7430    2.0540   -2.9630 c3        1 17F     -0.090100
     43 C31        -5.1380   -5.6780   10.5470 c3        1 17F     -0.076400
     44 C32        -4.3670   -5.6920   11.8510 c3        1 17F     -0.053200
     45 C33        -5.2580   -5.7080   13.0350 c2        1 17F     -0.160200
     46 C34        -4.8160   -5.7200   14.2980 c2        1 17F     -0.189200
     47 C35        -3.3810   -5.7190   14.6650 c3        1 17F     -0.047200
     48 C36        -3.1710   -5.7450   16.1650 c3        1 17F     -0.075400
     49 C37        -1.6970   -5.7420   16.5100 c3        1 17F     -0.080400
     50 C38        -1.4840   -5.7680   18.0080 c3        1 17F     -0.077400
     51 C39        -0.0100   -5.7640   18.3530 c3        1 17F     -0.080400
     52 C40         0.2050   -5.7910   19.8510 c3        1 17F     -0.078400
     53 C41         1.6790   -5.7870   20.1970 c3        1 17F     -0.081400
     54 C42         1.8990   -5.8130   21.6870 c3        1 17F     -0.091100
     55 H1          0.0770   -0.7630    1.5840 h1        1 17F      0.030200
     56 H1A         0.4870   -0.2390   -0.1330 h1        1 17F      0.030200
     57 HN1         0.1020   -3.3180    1.6590 hn        1 17F      0.351300
     58 HN1A        1.6500   -3.1360    2.1260 hn        1 17F      0.351300
     59 H2          1.0910   -2.6710   -0.6450 h1        1 17F      0.040700
     60 H4         -4.5050   -3.4030   -0.8040 h1        1 17F      0.037200
     61 H4A        -4.7210   -2.5750    0.8290 h1        1 17F      0.037200
     62 H5         -5.7280   -4.8030    0.9120 h1        1 17F      0.041700
     63 H6         -4.4100   -6.9110    0.5710 h1        1 17F      0.055700
     64 H6A        -4.6130   -5.9310   -0.9780 h1        1 17F      0.055700
     65 H8         -0.3220   -5.5150   -0.0650 hc        1 17F      0.122200
     66 H8A        -0.7350   -4.0380   -1.0090 hc        1 17F      0.122200
     67 H9         -0.3450   -5.4960   -3.1700 hc        1 17F      0.026200
     68 H9A         0.3760   -6.7410   -2.0780 hc        1 17F      0.026200
     69 H10         1.2840   -3.8030   -2.4480 hc        1 17F      0.079700
     70 H10A        1.8980   -4.8590   -1.1270 hc        1 17F      0.079700
     71 H11         2.0910   -5.4470   -4.1700 hc        1 17F      0.015700
     72 H11A        2.6930   -6.5350   -2.8620 hc        1 17F      0.015700
     73 H12         4.2030   -4.7200   -2.0200 hc        1 17F      0.068200
     74 H12A        3.5790   -3.5920   -3.2740 hc        1 17F      0.068200
     75 H18        -3.1700   -6.5190    4.4170 hc        1 17F      0.094200
     76 H18A       -3.1880   -4.7050    4.4000 hc        1 17F      0.094200
     77 H19        -5.4340   -4.7060    5.5270 hc        1 17F      0.046200
     78 H19A       -5.4780   -6.5110    5.4900 hc        1 17F      0.046200
     79 H20        -3.3380   -4.7780    6.9210 hc        1 17F      0.046200
     80 H20A       -3.3870   -6.5830    6.9020 hc        1 17F      0.046200
     81 H29         5.0260   -6.2820   -3.8270 hc        1 17F      0.023700
     82 H30         4.4010   -5.1510   -5.0860 hc        1 17F      0.023700
     83 H31        -5.6110   -4.7340    8.0130 hc        1 17F      0.036200
     84 H32        -5.6520   -6.5390    8.0010 hc        1 17F      0.036200
     85 H33        -3.5470   -6.5880    9.3940 hc        1 17F      0.042200
     86 H34        -3.5240   -4.7830    9.4130 hc        1 17F      0.042200
     87 H35         6.4980   -4.4470   -2.9130 hc        1 17F      0.063200
     88 H36         5.8720   -3.3180   -4.1670 hc        1 17F      0.063200
     89 H37         6.8430   -5.7330   -5.5470 ha        1 17F      0.110000
     90 H38         9.0760   -4.7340   -5.7410 ha        1 17F      0.104000
     91 H39         8.7430   -3.4640   -3.1070 hc        1 17F      0.057700
     92 H40         8.1020   -2.3230   -4.3440 hc        1 17F      0.057700
     93 H41        10.2750   -2.4820   -5.6200 hc        1 17F      0.030700
     94 H42        10.9180   -3.6250   -4.3800 hc        1 17F      0.030700
     95 H43         9.9460   -0.7330   -3.8380 hc        1 17F      0.048200
     96 H44        10.5890   -1.8750   -2.5980 hc        1 17F      0.048200
     97 H45        12.1230   -0.8770   -5.1000 hc        1 17F      0.032200
     98 H46        12.7660   -2.0200   -3.8600 hc        1 17F      0.032200
     99 H47        11.7900    0.8700   -3.3170 hc        1 17F      0.044700
    100 H48        12.4330   -0.2720   -2.0770 hc        1 17F      0.044700
    101 H49        14.6110   -0.4140   -3.3370 hc        1 17F      0.034200
    102 H50        13.9670    0.7290   -4.5770 hc        1 17F      0.034200
    103 H51        14.2740    1.3310   -1.5540 hc        1 17F      0.041700
    104 H52        13.6310    2.4740   -2.7940 hc        1 17F      0.041700
    105 H53        16.4650    1.2200   -2.7890 hc        1 17F      0.027700
    106 H54        16.0400    2.9170   -2.3210 hc        1 17F      0.027700
    107 H55        15.8200    2.3650   -4.0330 hc        1 17F      0.027700
    108 H56        -5.8100   -6.5750   10.4970 hc        1 17F      0.038200
    109 H57        -5.7950   -4.7690   10.5090 hc        1 17F      0.038200
    110 H58        -3.6970   -4.7900   11.9000 hc        1 17F      0.050200
    111 H59        -3.6940   -6.5930   11.8790 hc        1 17F      0.050200
    112 H60        -6.3400   -5.7070   12.8240 ha        1 17F      0.120000
    113 H61        -5.5300   -5.7310   15.1370 ha        1 17F      0.114000
    114 H62        -2.8860   -4.8060   14.2320 hc        1 17F      0.050200
    115 H63        -2.8750   -6.6090   14.1990 hc        1 17F      0.050200
    116 H64        -3.6570   -6.6590   16.5980 hc        1 17F      0.037700
    117 H65        -3.6680   -4.8540   16.6300 hc        1 17F      0.037700
    118 H66        -1.2000   -6.6330   16.0440 hc        1 17F      0.042700
    119 H67        -1.2120   -4.8280   16.0760 hc        1 17F      0.042700
    120 H68        -1.9690   -6.6820   18.4420 hc        1 17F      0.036700
    121 H69        -1.9810   -4.8770   18.4750 hc        1 17F      0.036700
    122 H70         0.4750   -4.8510   17.9190 hc        1 17F      0.041700
    123 H71         0.4880   -6.6550   17.8860 hc        1 17F      0.041700
    124 H72        -0.2920   -4.9000   20.3180 hc        1 17F      0.037200
    125 H73        -0.2800   -6.7050   20.2850 hc        1 17F      0.037200
    126 H74         2.1620   -4.8730   19.7600 hc        1 17F      0.040200
    127 H75         2.1750   -6.6770   19.7270 hc        1 17F      0.040200
    128 H76         1.4450   -6.7290   22.1370 hc        1 17F      0.030033
    129 H77         1.4330   -4.9200   22.1700 hc        1 17F      0.030033
    130 H78         2.9910   -5.8090   21.9190 hc        1 17F      0.030033
@<TRIPOS>BOND
     1    1    5 1
     2    1    8 1
     3    1   55 1
     4    1   56 1
     5    2    5 1
     6    2   57 1
     7    2   58 1
     8    3    4 1
     9    4    6 1
    10    4    8 1
    11    4   14 1
    12    5    7 1
    13    5   59 1
    14    7   10 1
    15    7   12 1
    16    9   11 1
    17    9   14 1
    18    9   60 1
    19    9   61 1
    20   11   13 1
    21   11   20 1
    22   11   62 1
    23   13   16 1
    24   13   63 1
    25   13   64 1
    26   15   16 1
    27   15   17 1
    28   15   18 2
    29   17   19 1
    30   17   65 1
    31   17   66 1
    32   19   21 1
    33   19   67 1
    34   19   68 1
    35   20   25 1
    36   21   23 1
    37   21   69 1
    38   21   70 1
    39   22   25 2
    40   23   24 1
    41   23   71 1
    42   23   72 1
    43   24   29 1
    44   24   73 1
    45   24   74 1
    46   25   26 1
    47   26   27 1
    48   26   75 1
    49   26   76 1
    50   27   28 1
    51   27   77 1
    52   27   78 1
    53   28   30 1
    54   28   79 1
    55   28   80 1
    56   29   32 1
    57   29   81 1
    58   29   82 1
    59   30   31 1
    60   30   83 1
    61   30   84 1
    62   31   43 1
    63   31   85 1
    64   31   86 1
    65   32   33 1
    66   32   87 1
    67   32   88 1
    68   33   34 2
    69   33   89 1
    70   34   35 1
    71   34   90 1
    72   35   36 1
    73   35   91 1
    74   35   92 1
    75   36   37 1
    76   36   93 1
    77   36   94 1
    78   37   38 1
    79   37   95 1
    80   37   96 1
    81   38   39 1
    82   38   97 1
    83   38   98 1
    84   39   40 1
    85   39   99 1
    86   39  100 1
    87   40   41 1
    88   40  101 1
    89   40  102 1
    90   41   42 1
    91   41  103 1
    92   41  104 1
    93   42  105 1
    94   42  106 1
    95   42  107 1
    96   43   44 1
    97   43  108 1
    98   43  109 1
    99   44   45 1
   100   44  110 1
   101   44  111 1
   102   45   46 2
   103   45  112 1
   104   46   47 1
   105   46  113 1
   106   47   48 1
   107   47  114 1
   108   47  115 1
   109   48   49 1
   110   48  116 1
   111   48  117 1
   112   49   50 1
   113   49  118 1
   114   49  119 1
   115   50   51 1
   116   50  120 1
   117   50  121 1
   118   51   52 1
   119   51  122 1
   120   51  123 1
   121   52   53 1
   122   52  124 1
   123   52  125 1
   124   53   54 1
   125   53  126 1
   126   53  127 1
   127   54  128 1
   128   54  129 1
   129   54  130 1
@<TRIPOS>SUBSTRUCTURE
     1 17F         1 TEMP              0 ****  ****    0 ROOT
