@<TRIPOS>MOLECULE
molecule
   47    51     1     0     0
SMALL
bcc


@<TRIPOS>ATOM
      1 O5           0.0000     0.0000     0.0000 o          1 17G      -0.619500
      2 C27          1.2190     0.0000     0.0000 c          1 17G       0.694700
      3 N8           1.8840     0.0000     1.1710 n          1 17G      -0.233200
      4 C19          1.1710    -0.0010     2.3760 ca         1 17G       0.028600
      5 C21          0.8700    -1.2020     3.0060 ca         1 17G      -0.089000
      6 C18          0.1670    -1.1980     4.1950 ca         1 17G      -0.129000
      7 C15         -0.2380    -0.0020     4.7570 ca         1 17G      -0.066000
      8 C20          0.7680     1.2000     2.9460 ca         1 17G      -0.076000
      9 C16          0.0600     1.1950     4.1320 ca         1 17G      -0.183300
     10 C24         -0.3780     2.4970     4.7510 c3         1 17G       0.671200
     11 F3          -1.6450     2.8410     4.2680 f          1 17G      -0.215300
     12 F2          -0.4320     2.3570     6.1430 f          1 17G      -0.215300
     13 F1           0.5360     3.5030     4.4190 f          1 17G      -0.215300
     14 C32          1.9140    -0.0050    -1.2260 cc         1 17G      -0.248200
     15 C31          3.2720    -0.0110    -1.2430 cd         1 17G      -0.023200
     16 C26          3.9750    -0.0120    -0.0120 ca         1 17G      -0.275100
     17 C34          5.3820    -0.0170     0.0280 ca         1 17G       0.485200
     18 N9           6.0270    -0.0180     1.1660 nb         1 17G      -0.704000
     19 C23          3.2520    -0.0000     1.1910 ca         1 17G       0.134600
     20 C25          3.9800    -0.0010     2.4030 ca         1 17G      -0.181300
     21 C30          3.3300     0.0100     3.6420 ca         1 17G      -0.134000
     22 C33          4.0810     0.0110     4.8060 cp         1 17G      -0.033000
     23 C36          5.4820    -0.0010     4.7450 ca         1 17G      -0.096000
     24 C35          6.1280    -0.0120     3.5480 ca         1 17G      -0.170300
     25 C29          5.3950    -0.0130     2.3500 ca         1 17G       0.451600
     26 C37          3.4010     0.0240     6.1240 cp         1 17G      -0.177300
     27 C39          2.2310     0.7550     6.3060 ca         1 17G       0.435200
     28 C38          3.9230    -0.7040     7.1990 ca         1 17G      -0.082000
     29 C40          3.2550    -0.6630     8.4070 ca         1 17G      -0.257300
     30 C41          2.0930     0.0970     8.5150 ca         1 17G       0.679200
     31 N10          1.6220     0.7690     7.4760 nb         1 17G      -0.704000
     32 N43          1.4140     0.1440     9.7270 nv         1 17G      -1.083500
     33 H1           1.1870    -2.1390     2.5660 ha         1 17G       0.154000
     34 H2          -0.0680    -2.1340     4.6870 ha         1 17G       0.150000
     35 H3          -0.7920    -0.0020     5.6880 ha         1 17G       0.163000
     36 H4           1.0010     2.1380     2.4580 ha         1 17G       0.165000
     37 H5           1.3630    -0.0050    -2.1590 ha         1 17G       0.170000
     38 H6           3.8100    -0.0150    -2.1830 ha         1 17G       0.144000
     39 H7           5.9410    -0.0220    -0.9000 h4         1 17G       0.031100
     40 H8           2.2480     0.0190     3.6910 ha         1 17G       0.175000
     41 H9           6.0570    -0.0000     5.6630 ha         1 17G       0.140000
     42 H10          7.2110    -0.0210     3.5190 ha         1 17G       0.155000
     43 H11          1.8150     1.3180     5.4790 h4         1 17G       0.027100
     44 H12          4.8290    -1.2870     7.0860 ha         1 17G       0.141000
     45 H13          3.6320    -1.2120     9.2610 ha         1 17G       0.145000
     46 H14          0.7400    -0.5610     9.9500 hn         1 17G       0.437300
     47 H15          1.5880     0.8920    10.3690 hn         1 17G       0.437300
@<TRIPOS>BOND
     1    17    18 ar
     2    17    16 ar
     3    18    25 ar
     4    15    16 1
     5    15    14 2
     6    16    19 ar
     7    14     2 1
     8    25    24 ar
     9    25    20 ar
    10    24    23 ar
    11    19    20 ar
    12    19     3 1
    13    20    21 ar
    14     2     3 1
    15     2     1 2
    16     3     4 1
    17    23    22 ar
    18    21    22 ar
    19    22    26 1
    20     4     5 ar
    21     4     8 ar
    22     5     6 ar
    23     8     9 ar
    24    26    27 ar
    25    26    28 ar
    26    27    31 ar
    27     6     7 ar
    28    28    29 ar
    29     9     7 ar
    30     9    10 1
    31    31    30 ar
    32    13    10 1
    33    10    11 1
    34    10    12 1
    35    29    30 ar
    36    30    32 1
    37     5    33 1
    38     6    34 1
    39     7    35 1
    40     8    36 1
    41    14    37 1
    42    15    38 1
    43    17    39 1
    44    21    40 1
    45    23    41 1
    46    24    42 1
    47    27    43 1
    48    28    44 1
    49    29    45 1
    50    32    46 1
    51    32    47 1
@<TRIPOS>SUBSTRUCTURE
     1 17G         1 TEMP              0 ****  ****    0 ROOT
