@<TRIPOS>MOLECULE
17G
   47    51     1     0     0
SMALL
bcc


@<TRIPOS>ATOM
      1 O5           0.0000     0.0000     0.0000 o          1 17G      -0.671500
      2 C27          1.2190     0.0000     0.0000 c          1 17G       0.587700
      3 N8           1.8840     0.0000     1.1710 n          1 17G       0.232800
      4 C19          1.1710    -0.0010     2.3760 ca         1 17G      -0.117400
      5 C21          0.8700    -1.2020     3.0060 ca         1 17G      -0.046000
      6 C18          0.1670    -1.1980     4.1950 ca         1 17G      -0.102000
      7 C15         -0.2380    -0.0020     4.7570 ca         1 17G      -0.019000
      8 C20          0.7680     1.2000     2.9460 ca         1 17G      -0.026000
      9 C16          0.0600     1.1950     4.1320 ca         1 17G      -0.208300
     10 C24         -0.3780     2.4970     4.7510 c3         1 17G       0.642200
     11 F3          -1.6450     2.8410     4.2680 f          1 17G      -0.201967
     12 F2          -0.4320     2.3570     6.1430 f          1 17G      -0.201967
     13 F1           0.5360     3.5030     4.4190 f          1 17G      -0.201967
     14 C32          1.9140    -0.0050    -1.2260 cc         1 17G      -0.227200
     15 C31          3.2720    -0.0110    -1.2430 cd         1 17G       0.009800
     16 C26          3.9750    -0.0120    -0.0120 ca         1 17G      -0.265100
     17 C34          5.3820    -0.0170     0.0280 ca         1 17G       0.466200
     18 N9           6.0270    -0.0180     1.1660 nb         1 17G      -0.593000
     19 C23          3.2520    -0.0000     1.1910 ca         1 17G      -0.035400
     20 C25          3.9800    -0.0010     2.4030 ca         1 17G      -0.159300
     21 C30          3.3300     0.0100     3.6420 ca         1 17G      -0.173000
     22 C33          4.0810     0.0110     4.8060 cp         1 17G      -0.011000
     23 C36          5.4820    -0.0010     4.7450 ca         1 17G      -0.078000
     24 C35          6.1280    -0.0120     3.5480 ca         1 17G      -0.139300
     25 C29          5.3950    -0.0130     2.3500 ca         1 17G       0.402600
     26 C37          3.4010     0.0240     6.1240 cp         1 17G      -0.160300
     27 C39          2.2310     0.7550     6.3060 ca         1 17G       0.388200
     28 C38          3.9230    -0.7040     7.1990 ca         1 17G      -0.060000
     29 C40          3.2550    -0.6630     8.4070 ca         1 17G      -0.220300
     30 C41          2.0930     0.0970     8.5150 ca         1 17G       0.497200
     31 N10          1.6220     0.7690     7.4760 nb         1 17G      -0.581000
     32 N43          1.4140     0.1440     9.7270 nv         1 17G      -0.658500
     33 H1           1.1870    -2.1390     2.5660 ha         1 17G       0.121000
     34 H2          -0.0680    -2.1340     4.6870 ha         1 17G       0.120000
     35 H3          -0.7920    -0.0020     5.6880 ha         1 17G       0.132000
     36 H4           1.0010     2.1380     2.4580 ha         1 17G       0.133000
     37 H5           1.3630    -0.0050    -2.1590 ha         1 17G       0.139000
     38 H6           3.8100    -0.0150    -2.1830 ha         1 17G       0.112000
     39 H7           5.9410    -0.0220    -0.9000 h4         1 17G      -0.016900
     40 H8           2.2480     0.0190     3.6910 ha         1 17G       0.178000
     41 H9           6.0570    -0.0000     5.6630 ha         1 17G       0.111000
     42 H10          7.2110    -0.0210     3.5190 ha         1 17G       0.121000
     43 H11          1.8150     1.3180     5.4790 h4         1 17G      -0.006900
     44 H12          4.8290    -1.2870     7.0860 ha         1 17G       0.114000
     45 H13          3.6320    -1.2120     9.2610 ha         1 17G       0.119000
     46 H14          0.7400    -0.5610     9.9500 hn         1 17G       0.277800
     47 H15          1.5880     0.8920    10.3690 hn         1 17G       0.277800
@<TRIPOS>BOND
     1     1     2 2   
     2     2     3 1   
     3     2    14 1   
     4     3     4 1   
     5     3    19 1   
     6     4     5 ar  
     7     4     8 ar  
     8     5     6 ar  
     9     5    33 1   
    10     6     7 ar  
    11     6    34 1   
    12     7     9 ar  
    13     7    35 1   
    14     8     9 ar  
    15     8    36 1   
    16     9    10 1   
    17    10    11 1   
    18    10    12 1   
    19    10    13 1   
    20    14    15 2   
    21    14    37 1   
    22    15    16 1   
    23    15    38 1   
    24    16    17 ar  
    25    16    19 ar  
    26    17    18 ar  
    27    17    39 1   
    28    18    25 ar  
    29    19    20 ar  
    30    20    21 ar  
    31    20    25 ar  
    32    21    22 ar  
    33    21    40 1   
    34    22    23 ar  
    35    22    26 1   
    36    23    24 ar  
    37    23    41 1   
    38    24    25 ar  
    39    24    42 1   
    40    26    27 ar  
    41    26    28 ar  
    42    27    31 ar  
    43    27    43 1   
    44    28    29 ar  
    45    28    44 1   
    46    29    30 ar  
    47    29    45 1   
    48    30    31 ar  
    49    30    32 1   
    50    32    46 1   
    51    32    47 1   
@<TRIPOS>SUBSTRUCTURE
     1 17G         1 TEMP              0 ****  ****    0 ROOT
