@<TRIPOS>MOLECULE
17G
   47    51     1     0     0
SMALL
bcc


@<TRIPOS>ATOM
      1 O5           0.1450    -1.3750     0.2710 o          1 17G      -0.609500
      2 C27          1.3010    -0.9350     0.1510 c          1 17G       0.699700
      3 N8           1.9740    -0.4110     1.2990 n          1 17G      -0.270200
      4 C19          1.1500    -0.0240     2.3980 ca         1 17G       0.024600
      5 C21          0.3020    -0.9670     3.0170 ca         1 17G      -0.072000
      6 C18         -0.5490    -0.5720     4.0470 ca         1 17G      -0.128000
      7 C15         -0.5680     0.7500     4.4840 ca         1 17G      -0.083000
      8 C20          1.1210     1.3190     2.8320 ca         1 17G      -0.085000
      9 C16          0.2740     1.6840     3.8760 ca         1 17G      -0.169300
     10 C24          0.2730     3.1240     4.3760 c3         1 17G       0.688200
     11 F3           1.0910     3.3320     5.4620 f          1 17G      -0.234967
     12 F2          -0.9540     3.5820     4.7900 f          1 17G      -0.234967
     13 F1           0.6890     4.0560     3.4580 f          1 17G      -0.234967
     14 C32          2.0170    -0.9070    -1.1280 cc         1 17G      -0.243200
     15 C31          3.2820    -0.4450    -1.2040 cd         1 17G      -0.012200
     16 C26          3.9720    -0.0380    -0.0140 ca         1 17G      -0.276100
     17 C34          5.3290     0.4170    -0.0900 ca         1 17G       0.457200
     18 N9           6.0570     0.7650     0.9440 nb         1 17G      -0.669000
     19 C23          3.3340    -0.0890     1.2440 ca         1 17G       0.150600
     20 C25          4.1570     0.1630     2.4160 ca         1 17G      -0.163300
     21 C30          3.7320    -0.0790     3.7430 ca         1 17G      -0.103000
     22 C33          4.5480     0.1950     4.8290 cp         1 17G      -0.016000
     23 C36          5.8480     0.7150     4.6120 ca         1 17G      -0.102000
     24 C35          6.3130     0.9200     3.3380 ca         1 17G      -0.171300
     25 C29          5.4950     0.6220     2.2040 ca         1 17G       0.415600
     26 C37          4.0910    -0.0510     6.1890 cp         1 17G      -0.218300
     27 C39          4.9220    -0.7100     7.1230 ca         1 17G       0.453200
     28 C38          2.8270     0.3630     6.6330 ca         1 17G      -0.040000
     29 C40          2.4370     0.1090     7.9400 ca         1 17G      -0.304300
     30 C41          3.3340    -0.5830     8.8130 ca         1 17G       0.640200
     31 N10          4.5850    -0.9730     8.3900 nb         1 17G      -0.724000
     32 N43          2.9090    -0.9340    10.0970 nv         1 17G      -0.929500
     33 H1           0.2870    -2.0120     2.6630 ha         1 17G       0.168000
     34 H2          -1.2140    -1.3130     4.5150 ha         1 17G       0.151000
     35 H3          -1.2440     1.0650     5.2950 ha         1 17G       0.155000
     36 H4           1.7640     2.0790     2.3580 ha         1 17G       0.164000
     37 H5           1.4430    -1.2640    -1.9940 ha         1 17G       0.171000
     38 H6           3.8210    -0.3850    -2.1630 ha         1 17G       0.148000
     39 H7           5.8080     0.4980    -1.0850 h4         1 17G       0.028100
     40 H8           2.7450    -0.5260     3.9410 ha         1 17G       0.147000
     41 H9           6.4810     0.9490     5.4830 ha         1 17G       0.145000
     42 H10          7.3310     1.3090     3.1710 ha         1 17G       0.157000
     43 H11          5.9330    -1.0500     6.8280 h4         1 17G       0.024100
     44 H12          2.1500     0.9040     5.9500 ha         1 17G       0.143000
     45 H13          1.4510     0.4320     8.2980 ha         1 17G       0.144000
     46 H14          2.2350    -0.3180    10.4910 hn         1 17G       0.410300
     47 H15          3.6110    -1.2450    10.7310 hn         1 17G       0.410300
@<TRIPOS>BOND
     1     1     2 2   
     2     2     3 1   
     3     2    14 1   
     4     3     4 1   
     5     3    19 1   
     6     4     5 ar  
     7     4     8 ar  
     8     5     6 ar  
     9     5    33 1   
    10     6     7 ar  
    11     6    34 1   
    12     7     9 ar  
    13     7    35 1   
    14     8     9 ar  
    15     8    36 1   
    16     9    10 1   
    17    10    11 1   
    18    10    12 1   
    19    10    13 1   
    20    14    15 2   
    21    14    37 1   
    22    15    16 1   
    23    15    38 1   
    24    16    17 ar  
    25    16    19 ar  
    26    17    18 ar  
    27    17    39 1   
    28    18    25 ar  
    29    19    20 ar  
    30    20    21 ar  
    31    20    25 ar  
    32    21    22 ar  
    33    21    40 1   
    34    22    23 ar  
    35    22    26 1   
    36    23    24 ar  
    37    23    41 1   
    38    24    25 ar  
    39    24    42 1   
    40    26    27 ar  
    41    26    28 ar  
    42    27    31 ar  
    43    27    43 1   
    44    28    29 ar  
    45    28    44 1   
    46    29    30 ar  
    47    29    45 1   
    48    30    31 ar  
    49    30    32 1   
    50    32    46 1   
    51    32    47 1   
@<TRIPOS>SUBSTRUCTURE
     1 17G         1 TEMP              0 ****  ****    0 ROOT
