@<TRIPOS>MOLECULE
17H
   51    54     1     0     0
SMALL
bcc


@<TRIPOS>ATOM
      1 C2           0.0010     0.4530     0.1100 c3         1 17H      -0.179400
      2 C4          -0.0690    -0.4640     2.4420 ce         1 17H      -0.263200
      3 C7           3.4000    -1.1130     3.6730 c3         1 17H      -0.073400
      4 C6           1.9450    -0.7270     3.8130 c3         1 17H      -0.055200
      5 C9           3.4600    -0.0820     1.4200 ce         1 17H      -0.035200
      6 C11          4.3260     0.0680     0.2570 ce         1 17H      -0.144000
      7 C1           1.3920    -0.1380     0.0180 c3         1 17H      -0.034200
      8 C3          -0.8110    -0.1540     1.2170 c          1 17H       0.569300
      9 C5           1.2800    -0.4580     2.5030 cf         1 17H       0.005800
     10 C8           4.1180    -0.1140     2.7770 c3         1 17H      -0.021500
     11 C10          2.1090    -0.2000     1.3260 cf         1 17H      -0.096200
     12 C12          5.6470     0.3070     0.3250 c2         1 17H      -0.122200
     13 C13          6.3250     0.4680     1.6400 c3         1 17H      -0.054800
     14 C14          5.5830    -0.4640     2.6360 c3         1 17H      -0.062700
     15 C15          6.4760    -0.4600     3.8670 c3         1 17H      -0.073400
     16 C16          7.8960    -0.4190     3.3020 c3         1 17H      -0.073400
     17 C17          7.7920    -0.0600     1.7940 c3         1 17H       0.161800
     18 C18          6.2740     1.9430     2.0630 c3         1 17H      -0.062400
     19 C22          6.4910     2.9130     0.9280 c3         1 17H      -0.089100
     20 C20          8.0590    -1.2670     0.8910 c3         1 17H      -0.104400
     21 O3          -2.0290    -0.3450     1.1110 o          1 17H      -0.537100
     22 O17          8.7590     0.9520     1.5610 oh         1 17H      -0.588800
     23 H21         -0.5290     0.3180    -0.8700 hc         1 17H       0.072700
     24 H22          0.0660     1.5570     0.3080 hc         1 17H       0.072700
     25 H4          -0.6810    -0.7030     3.3270 ha         1 17H       0.149000
     26 H71          3.4850    -2.1430     3.2400 hc         1 17H       0.050700
     27 H72          3.8870    -1.1280     4.6830 hc         1 17H       0.050700
     28 H61          1.8650     0.2050     4.4400 hc         1 17H       0.059200
     29 H62          1.3930    -1.5400     4.3570 hc         1 17H       0.059200
     30 H11          3.8520    -0.0460    -0.7320 ha         1 17H       0.129000
     31 H11A         1.3260    -1.1830    -0.3950 hc         1 17H       0.055700
     32 H12A         1.9680     0.4790    -0.7220 hc         1 17H       0.055700
     33 H8           4.0060     0.9070     3.2440 hc         1 17H       0.067700
     34 H12          6.2590     0.4240    -0.5810 ha         1 17H       0.128000
     35 H14          5.6180    -1.5080     2.2020 hc         1 17H       0.054700
     36 H151         6.2740     0.4400     4.5010 hc         1 17H       0.046700
     37 H152         6.3120    -1.3690     4.4950 hc         1 17H       0.046700
     38 H161         8.4000    -1.4070     3.4250 hc         1 17H       0.059200
     39 H162         8.5140     0.3540     3.8240 hc         1 17H       0.059200
     40 H181         5.2780     2.1660     2.5260 hc         1 17H       0.050700
     41 H182         7.0560     2.1130     2.8510 hc         1 17H       0.050700
     42 H221         6.4660     3.9590     1.3210 hc         1 17H       0.032700
     43 H222         7.4810     2.7510     0.4390 hc         1 17H       0.032700
     44 H223         5.6930     2.8100     0.1540 hc         1 17H       0.032700
     45 H211        10.1880    -0.8850     0.7300 hc         1 17H       0.038367
     46 H212         9.6600    -2.5340     0.1820 hc         1 17H       0.038367
     47 H213         9.7450    -2.1460     1.9480 hc         1 17H       0.038367
     48 H201         7.8060    -0.9910    -0.1670 hc         1 17H       0.046200
     49 H202         7.3770    -2.1040     1.1910 hc         1 17H       0.046200
     50 H17          8.7610     1.1240     0.6110 ho         1 17H       0.400000
     51 C21          9.4910    -1.7330     0.9420 c3         1 17H      -0.093100
@<TRIPOS>BOND
     1     1     7 1   
     2     1     8 1   
     3     1    23 1   
     4     1    24 1   
     5     2     8 1   
     6     2     9 2   
     7     2    25 1   
     8     3     4 1   
     9     3    10 1   
    10     3    26 1   
    11     3    27 1   
    12     4     9 1   
    13     4    28 1   
    14     4    29 1   
    15     5     6 1   
    16     5    10 1   
    17     5    11 2   
    18     6    12 2   
    19     6    30 1   
    20     7    11 1   
    21     7    31 1   
    22     7    32 1   
    23     8    21 2   
    24     9    11 1   
    25    10    14 1   
    26    10    33 1   
    27    12    13 1   
    28    12    34 1   
    29    13    14 1   
    30    13    17 1   
    31    13    18 1   
    32    14    15 1   
    33    14    35 1   
    34    15    16 1   
    35    15    36 1   
    36    15    37 1   
    37    16    17 1   
    38    16    38 1   
    39    16    39 1   
    40    17    20 1   
    41    17    22 1   
    42    18    19 1   
    43    18    40 1   
    44    18    41 1   
    45    19    42 1   
    46    19    43 1   
    47    19    44 1   
    48    20    48 1   
    49    20    49 1   
    50    20    51 1   
    51    22    50 1   
    52    45    51 1   
    53    46    51 1   
    54    47    51 1   
@<TRIPOS>SUBSTRUCTURE
     1 17H         1 TEMP              0 ****  ****    0 ROOT
