@<TRIPOS>MOLECULE
17H
   51    49     1     0     0
SMALL
bcc


@<TRIPOS>ATOM
      1 C2         -0.8770    0.1760    0.1410 c2        1 17H     -0.320000
      2 C4         -0.3270    1.4010    1.8730 c1        1 17H     -0.099000
      3 C7          2.5700   -0.1090    3.7760 c3        1 17H     -0.148000
      4 C6          1.6610    1.0140    3.3170 c3        1 17H     -0.108000
      5 C9          2.2680   -1.3710    1.6480 c3        1 17H     -0.102000
      6 C11         5.1980   -1.9910   -0.2940 c1        1 17H     -0.217000
      7 C1          0.2910   -0.7520    0.1810 c3        1 17H     -0.039000
      8 C3         -0.9160    1.2510   -0.6370 c1        1 17H      0.284000
      9 C5          0.8470    0.6310    2.1270 c2        1 17H     -0.125000
     10 C8          3.2900   -0.7550    2.5990 c3        1 17H     -0.102000
     11 C10         1.1460   -0.4490    1.3650 c2        1 17H     -0.183000
     12 C12         5.3850   -1.9040    0.8850 c1        1 17H     -0.139000
     13 C13         5.6230   -1.7890    2.3070 c3        1 17H      0.113000
     14 C14         4.2910   -1.7950    3.0850 c3        1 17H     -0.143000
     15 C15         7.4980   -2.7130    5.0590 c2        1 17H     -0.205500
     16 C16         6.4920   -3.1160    4.2880 c2        1 17H     -0.193500
     17 C17         6.4910   -3.0160    2.7830 c3        1 17H      0.143000
     18 C18         6.3680   -0.5240    2.6410 c2        1 17H     -0.140000
     19 C22         6.4110    0.5640    1.8780 c2        1 17H     -0.213000
     20 C20         5.9430   -4.3030    2.2240 c2        1 17H     -0.193500
     21 O3         -0.9510    2.2410   -1.2920 o         1 17H     -0.130000
     22 O17         7.8100   -2.7610    2.2980 oh        1 17H     -0.314000
     23 H21        -0.0860   -1.8090    0.2470 hc        1 17H      0.091000
     24 H22        -1.7950   -0.1350    0.6720 ha        1 17H      0.213000
     25 H4         -0.2270    2.4190    1.4760 ha        1 17H      0.064000
     26 H71         0.9840    1.3120    4.1620 hc        1 17H      0.091500
     27 H72         3.3200    0.3030    4.5010 hc        1 17H      0.083000
     28 H61         1.9680   -0.8870    4.3130 hc        1 17H      0.083000
     29 H62         2.2800    1.9130    3.0460 hc        1 17H      0.091500
     30 H11         1.8520   -2.3140    2.0990 hc        1 17H      0.085500
     31 H11A        5.0350   -2.0710   -1.3380 ha        1 17H      0.220000
     32 H12A        0.9030   -0.6750   -0.7580 hc        1 17H      0.091000
     33 H8          3.8480    0.0540    2.0450 hc        1 17H      0.103000
     34 H12         2.7850   -1.6590    0.6930 hc        1 17H      0.085500
     35 H14         3.8370   -2.8180    3.0200 hc        1 17H      0.088500
     36 H151        4.5300   -1.5990    4.1650 hc        1 17H      0.088500
     37 H152        8.4120   -2.2590    4.6480 ha        1 17H      0.119500
     38 H161        7.4720   -2.8090    6.1530 ha        1 17H      0.119500
     39 H162        5.5820   -3.5690    4.7140 ha        1 17H      0.128000
     40 H181        9.8810   -1.6010    2.7090 ha        1 17H      0.001750
     41 H182       10.1920   -2.1030    3.0400 ha        1 17H      0.001750
     42 H221        6.9000   -0.5750    3.6060 ha        1 17H      0.129000
     43 H222        6.9640    1.4630    2.1810 ha        1 17H      0.114500
     44 H223        5.9090    0.6320    0.9030 ha        1 17H      0.114500
     45 H211        7.5510   -4.8040    0.9090 ha        1 17H      0.119500
     46 H212        9.4730   -3.5570    0.5010 ha        1 17H      0.001750
     47 H213        6.1360   -6.0030    0.9600 ha        1 17H      0.119500
     48 H201        9.7410   -3.0060    0.7910 ha        1 17H      0.001750
     49 H202        4.9530   -4.5820    2.6200 ha        1 17H      0.128000
     50 H17         8.3590   -3.5050    2.5830 ho        1 17H      0.204000
     51 C21         6.5720   -5.0670    1.3350 c2        1 17H     -0.205500
@<TRIPOS>BOND
     1    1    7 1   
     2    1    8 1   
     3    1   24 1   
     4    2    9 1   
     5    2   25 1   
     6    3    4 1   
     7    3   10 1   
     8    3   27 1   
     9    3   28 1   
    10    4    9 1   
    11    4   26 1   
    12    4   29 1   
    13    5   10 1   
    14    5   11 1   
    15    5   30 1   
    16    5   34 1   
    17    6   12 1   
    18    6   31 1   
    19    7   11 1   
    20    7   23 1   
    21    7   32 1   
    22    8   21 1   
    23    9   11 1   
    24   10   14 1   
    25   10   33 1   
    26   12   13 1   
    27   13   14 1   
    28   13   17 1   
    29   13   18 1   
    30   14   35 1   
    31   14   36 1   
    32   15   16 1   
    33   15   37 1   
    34   15   38 1   
    35   16   17 1   
    36   16   39 1   
    37   17   20 1   
    38   17   22 1   
    39   18   19 1   
    40   18   42 1   
    41   19   43 1   
    42   19   44 1   
    43   20   49 1   
    44   20   51 1   
    45   22   50 1   
    46   40   41 1   
    47   45   51 1   
    48   46   48 1   
    49   47   51 1   
@<TRIPOS>SUBSTRUCTURE
     1 17H         1 TEMP              0 ****  ****    0 ROOT
