@<TRIPOS>MOLECULE
molecule
   51    54     1     0     0
SMALL
bcc


@<TRIPOS>ATOM
      1 C2           0.0000     0.0000     0.0000 c3         1 17H      -0.179400
      2 C4           0.1360     1.2140     2.1980 ce         1 17H      -0.272200
      3 C7           2.7720    -0.5090     4.1020 c3         1 17H      -0.072400
      4 C6           1.9410     0.7500     3.8260 c3         1 17H      -0.050200
      5 C9           3.2240    -0.6590     1.6610 ce         1 17H      -0.033200
      6 C11          3.8070    -1.4330     0.6240 ce         1 17H      -0.164000
      7 C1           1.5260     0.0000     0.0000 c3         1 17H      -0.035200
      8 C3          -0.5100     1.0320     0.9710 c          1 17H       0.571300
      9 C5           1.3540     0.6500     2.4380 cf         1 17H       0.010800
     10 C8           3.8570    -0.6080     3.0350 c3         1 17H      -0.029500
     11 C10          2.0580     0.0000     1.4130 cf         1 17H      -0.112200
     12 C12          5.0040    -2.0310     0.7590 c2         1 17H      -0.106200
     13 C13          5.7330    -1.8600     2.0460 c3         1 17H      -0.030800
     14 C14          4.6760    -1.8740     3.1920 c3         1 17H      -0.067700
     15 C15          5.5730    -1.9460     4.4320 c3         1 17H      -0.074400
     16 C16          6.6610    -2.9730     4.0150 c3         1 17H      -0.112400
     17 C17          6.7110    -2.9510     2.4660 c3         1 17H       0.165800
     18 C18          6.4320    -0.5000     2.0650 c3         1 17H      -0.063400
     19 C22          7.3350    -0.3740     0.8360 c3         1 17H      -0.077100
     20 C20          6.2710    -4.3030     1.9010 c3         1 17H      -0.102400
     21 O3          -1.4820     1.7060     0.6890 o          1 17H      -0.540100
     22 O17          8.0300    -2.6330     2.0180 oh         1 17H      -0.594800
     23 H21         -0.3590    -0.9790     0.2960 hc         1 17H       0.069700
     24 H22         -0.3590     0.2350    -0.9950 hc         1 17H       0.069700
     25 H4          -0.3380     1.8110     2.9680 ha         1 17H       0.151000
     26 H71          3.2290    -0.4360     5.0810 hc         1 17H       0.051200
     27 H72          2.1340    -1.3840     4.0550 hc         1 17H       0.051200
     28 H61          1.1410     0.8230     4.5530 hc         1 17H       0.059700
     29 H62          2.5770     1.6240     3.8880 hc         1 17H       0.059700
     30 H11          3.2690    -1.5480    -0.3090 ha         1 17H       0.137000
     31 H11A         1.8820     0.8850    -0.5140 hc         1 17H       0.059200
     32 H12A         1.8820    -0.8850    -0.5140 hc         1 17H       0.059200
     33 H8           4.5090     0.2550     3.1010 hc         1 17H       0.079700
     34 H12          5.3030    -2.8090     0.0660 ha         1 17H       0.138000
     35 H14          4.0470    -2.7520     3.1200 hc         1 17H       0.066700
     36 H151         5.0140    -2.3090     5.2860 hc         1 17H       0.050200
     37 H152         6.0190    -0.9810     4.6380 hc         1 17H       0.050200
     38 H161         7.6210    -2.6800     4.4210 hc         1 17H       0.052200
     39 H162         6.3890    -3.9620     4.3620 hc         1 17H       0.052200
     40 H181         5.6900     0.2880     2.0490 hc         1 17H       0.045200
     41 H182         7.0320    -0.4140     2.9630 hc         1 17H       0.045200
     42 H221         8.3690    -0.3080     1.1530 hc         1 17H       0.035700
     43 H222         7.2070    -1.2440     0.2030 hc         1 17H       0.035700
     44 H223         7.0690     0.5180     0.2820 hc         1 17H       0.035700
     45 H211         6.6500    -5.9350     3.2480 hc         1 17H       0.033700
     46 H212         7.4290    -6.0990     1.6680 hc         1 17H       0.033700
     47 H213         8.0770    -4.9640     2.8610 hc         1 17H       0.033700
     48 H201         6.3490    -4.2870     0.8210 hc         1 17H       0.053200
     49 H202         5.2440    -4.4970     2.1870 hc         1 17H       0.053200
     50 H17          8.6620    -3.0390     2.5870 ho         1 17H       0.401000
     51 C21          7.1730    -5.4060     2.4600 c3         1 17H      -0.092100
@<TRIPOS>BOND
     1     1     7 1
     2     1     8 1
     3     1    23 1
     4     1    24 1
     5     2     8 1
     6     2     9 2
     7     2    25 1
     8     3     4 1
     9     3    10 1
    10     3    26 1
    11     3    27 1
    12     4     9 1
    13     4    28 1
    14     4    29 1
    15     5     6 1
    16     5    10 1
    17     5    11 2
    18     6    12 2
    19     6    30 1
    20     7    11 1
    21     7    31 1
    22     7    32 1
    23     8    21 2
    24     9    11 1
    25    10    14 1
    26    10    33 1
    27    12    13 1
    28    12    34 1
    29    13    14 1
    30    13    17 1
    31    13    18 1
    32    14    15 1
    33    14    35 1
    34    15    16 1
    35    15    36 1
    36    15    37 1
    37    16    17 1
    38    16    38 1
    39    16    39 1
    40    17    20 1
    41    17    22 1
    42    18    19 1
    43    18    40 1
    44    18    41 1
    45    19    42 1
    46    19    43 1
    47    19    44 1
    48    51    20 1
    49    51    45 1
    50    51    46 1
    51    51    47 1
    52    20    48 1
    53    20    49 1
    54    22    50 1
@<TRIPOS>SUBSTRUCTURE
     1 17H         1 TEMP              0 ****  ****    0 ROOT
