@<TRIPOS>MOLECULE
molecule
   44    47     1     0     0
SMALL
bcc


@<TRIPOS>ATOM
      1 C2           0.0000     0.0000     0.0000 c          1 17J       0.792100
      2 O1           1.2160     0.0000     0.0000 o          1 17J      -0.644100
      3 N10         -0.6750     0.0000     1.1660 n          1 17J      -0.513800
      4 C15          0.0270     0.1980     2.4440 c3         1 17J       0.116500
      5 C14         -0.3790    -0.9270     3.4010 c3         1 17J       0.143800
      6 N13         -1.8430    -0.9800     3.4980 nh         1 17J      -0.658300
      7 C12         -2.4520    -1.3080     2.2020 c3         1 17J       0.143800
      8 C11         -2.1320    -0.1910     1.1950 c3         1 17J       0.116500
      9 C16         -2.2450    -1.8740     4.4740 cc         1 17J       0.655300
     10 S20         -1.2370    -2.8380     5.4870 ss         1 17J      -0.023300
     11 N19         -2.5300    -3.5690     6.3130 nd         1 17J      -0.498100
     12 C18         -3.6190    -3.0610     5.7940 cc         1 17J       0.686500
     13 N17         -3.4740    -2.1660     4.8310 nc         1 17J      -0.765000
     14 C21         -4.9630    -3.4670     6.2710 ca         1 17J      -0.131500
     15 C26         -5.0870    -4.4080     7.2920 ca         1 17J      -0.087000
     16 C25         -6.3390    -4.7830     7.7320 ca         1 17J      -0.141000
     17 C24         -7.4710    -4.2270     7.1630 ca         1 17J      -0.111000
     18 C23         -7.3540    -3.2930     6.1490 ca         1 17J      -0.141000
     19 C22         -6.1050    -2.9060     5.7050 ca         1 17J      -0.087000
     20 H2           1.0970     0.1670     2.2790 h1         1 17J       0.068200
     21 H3          -0.2540     1.1550     2.8680 h1         1 17J       0.068200
     22 H4          -0.0090    -1.8730     3.0230 h1         1 17J       0.064950
     23 H5           0.0400    -0.7350     4.3810 h1         1 17J       0.064950
     24 H6          -2.0480    -2.2460     1.8400 h1         1 17J       0.064950
     25 H7          -3.5260    -1.3910     2.3180 h1         1 17J       0.064950
     26 H8          -2.4810    -0.4780     0.2100 h1         1 17J       0.068200
     27 H9          -2.6140     0.7280     1.5060 h1         1 17J       0.068200
     28 H10         -4.2020    -4.8440     7.7380 ha         1 17J       0.151500
     29 H11         -6.4370    -5.5140     8.5250 ha         1 17J       0.133500
     30 H12         -8.4530    -4.5260     7.5100 ha         1 17J       0.131000
     31 H13         -8.2440    -2.8590     5.7090 ha         1 17J       0.133500
     32 H14         -6.0150    -2.1740     4.9110 ha         1 17J       0.151500
     33 C3           0.0180     0.1830    -2.3730 ca         1 17J      -0.056700
     34 N1          -0.6730     0.0050    -1.1680 ns         1 17J      -0.484100
     35 C4          -0.6390     0.6780    -3.4970 ca         1 17J      -0.139000
     36 C1           0.0870     0.8370    -4.6660 ca         1 17J      -0.236300
     37 C5           1.4280     0.5000    -4.6790 ca         1 17J       0.395200
     38 N2           2.0190     0.0320    -3.5980 nb         1 17J      -0.670000
     39 C7           1.3670    -0.1280    -2.4640 ca         1 17J       0.404200
     40 H1          -1.6620    -0.1460    -1.1760 hn         1 17J       0.322500
     41 H15         -1.6910     0.9340    -3.4580 ha         1 17J       0.133000
     42 H16         -0.3910     1.2200    -5.5600 ha         1 17J       0.138000
     43 H17          1.9990     0.6190    -5.5920 h4         1 17J       0.022100
     44 H18          1.8880    -0.5150    -1.5960 h4         1 17J       0.080100
@<TRIPOS>BOND
     1    18    17 ar
     2    18    19 ar
     3    17    16 ar
     4    19    14 ar
     5    16    15 ar
     6    14    15 ar
     7    14    12 1
     8    13    12 1
     9    13     9 2
    10    12    11 2
    11     5     4 1
    12     5     6 1
    13     4     3 1
    14     2     1 2
    15     9     6 1
    16     9    10 1
    17     6     7 1
    18    11    10 1
    19     3     1 1
    20     3     8 1
    21     7     8 1
    22     4    20 1
    23     4    21 1
    24     5    22 1
    25     5    23 1
    26     7    24 1
    27     7    25 1
    28     8    26 1
    29     8    27 1
    30    15    28 1
    31    16    29 1
    32    17    30 1
    33    18    31 1
    34    19    32 1
    35    34    33 1
    36     1    34 1
    37    33    35 ar
    38    35    36 ar
    39    36    37 ar
    40    37    38 ar
    41    38    39 ar
    42    39    33 ar
    43    34    40 1
    44    35    41 1
    45    36    42 1
    46    37    43 1
    47    39    44 1
@<TRIPOS>SUBSTRUCTURE
     1 17J         1 TEMP              0 ****  ****    0 ROOT
