@<TRIPOS>MOLECULE
17J
   44    47     1     0     0
SMALL
bcc


@<TRIPOS>ATOM
      1 C2           0.0000     0.0000     0.0000 c          1 17J       0.590100
      2 O1           1.2160     0.0000     0.0000 o          1 17J      -0.686100
      3 N10         -0.6750     0.0000     1.1660 n          1 17J      -0.187800
      4 C15          0.0270     0.1980     2.4440 c3         1 17J       0.060500
      5 C14         -0.3790    -0.9270     3.4010 c3         1 17J       0.109800
      6 N13         -1.8430    -0.9800     3.4980 nh         1 17J      -0.393300
      7 C12         -2.4520    -1.3080     2.2020 c3         1 17J       0.109800
      8 C11         -2.1320    -0.1910     1.1950 c3         1 17J       0.060500
      9 C16         -2.2450    -1.8740     4.4740 cc         1 17J       0.547300
     10 S20         -1.2370    -2.8380     5.4870 ss         1 17J      -0.102300
     11 N19         -2.5300    -3.5690     6.3130 nc         1 17J      -0.439100
     12 C18         -3.6190    -3.0610     5.7940 cd         1 17J       0.663500
     13 N17         -3.4740    -2.1660     4.8310 nd         1 17J      -0.658000
     14 C21         -4.9630    -3.4670     6.2710 ca         1 17J      -0.156500
     15 C26         -5.0870    -4.4080     7.2920 ca         1 17J      -0.059500
     16 C25         -6.3390    -4.7830     7.7320 ca         1 17J      -0.115000
     17 C24         -7.4710    -4.2270     7.1630 ca         1 17J      -0.080000
     18 C23         -7.3540    -3.2930     6.1490 ca         1 17J      -0.115000
     19 C22         -6.1050    -2.9060     5.7050 ca         1 17J      -0.059500
     20 H2           1.0970     0.1670     2.2790 h1         1 17J       0.037950
     21 H3          -0.2540     1.1550     2.8680 h1         1 17J       0.037950
     22 H4          -0.0090    -1.8730     3.0230 h1         1 17J       0.038450
     23 H5           0.0400    -0.7350     4.3810 h1         1 17J       0.038450
     24 H6          -2.0480    -2.2460     1.8400 h1         1 17J       0.038450
     25 H7          -3.5260    -1.3910     2.3180 h1         1 17J       0.038450
     26 H8          -2.4810    -0.4780     0.2100 h1         1 17J       0.037950
     27 H9          -2.6140     0.7280     1.5060 h1         1 17J       0.037950
     28 H10         -4.2020    -4.8440     7.7380 ha         1 17J       0.122000
     29 H11         -6.4370    -5.5140     8.5250 ha         1 17J       0.105500
     30 H12         -8.4530    -4.5260     7.5100 ha         1 17J       0.102000
     31 H13         -8.2440    -2.8590     5.7090 ha         1 17J       0.105500
     32 H14         -6.0150    -2.1740     4.9110 ha         1 17J       0.122000
     33 C3           0.0180     0.1830    -2.3730 ca         1 17J      -0.198700
     34 N1          -0.6730     0.0050    -1.1680 ns         1 17J      -0.047100
     35 C4          -0.6390     0.6780    -3.4970 ca         1 17J      -0.116000
     36 C1           0.0870     0.8370    -4.6660 ca         1 17J      -0.202300
     37 C5           1.4280     0.5000    -4.6790 ca         1 17J       0.382200
     38 N2           2.0190     0.0320    -3.5980 nb         1 17J      -0.560000
     39 C7           1.3670    -0.1280    -2.4640 ca         1 17J       0.371200
     40 H1          -1.6620    -0.1460    -1.1760 hn         1 17J       0.172500
     41 H15         -1.6910     0.9340    -3.4580 ha         1 17J       0.107000
     42 H16         -0.3910     1.2200    -5.5600 ha         1 17J       0.111000
     43 H17          1.9990     0.6190    -5.5920 h4         1 17J      -0.020900
     44 H18          1.8880    -0.5150    -1.5960 h4         1 17J       0.051100
@<TRIPOS>BOND
     1     1     2 2   
     2     1     3 1   
     3     1    34 1   
     4     3     4 1   
     5     3     8 1   
     6     4     5 1   
     7     4    20 1   
     8     4    21 1   
     9     5     6 1   
    10     5    22 1   
    11     5    23 1   
    12     6     7 1   
    13     6     9 1   
    14     7     8 1   
    15     7    24 1   
    16     7    25 1   
    17     8    26 1   
    18     8    27 1   
    19     9    10 1   
    20     9    13 2   
    21    10    11 1   
    22    11    12 2   
    23    12    13 1   
    24    12    14 1   
    25    14    15 ar  
    26    14    19 ar  
    27    15    16 ar  
    28    15    28 1   
    29    16    17 ar  
    30    16    29 1   
    31    17    18 ar  
    32    17    30 1   
    33    18    19 ar  
    34    18    31 1   
    35    19    32 1   
    36    33    34 1   
    37    33    35 ar  
    38    33    39 ar  
    39    34    40 1   
    40    35    36 ar  
    41    35    41 1   
    42    36    37 ar  
    43    36    42 1   
    44    37    38 ar  
    45    37    43 1   
    46    38    39 ar  
    47    39    44 1   
@<TRIPOS>SUBSTRUCTURE
     1 17J         1 TEMP              0 ****  ****    0 ROOT
