@<TRIPOS>MOLECULE
17K
   53    55     1     0     0
SMALL
bcc


@<TRIPOS>ATOM
      1 CAN         -0.2720    -0.8250     0.7440 ca         1 17K      -0.121500
      2 CAJ          1.0850    -1.0070     1.0090 ca         1 17K      -0.140000
      3 CAI          1.7650    -0.1080     1.8290 ca         1 17K      -0.145000
      4 CAK          1.0830     0.9750     2.3840 ca         1 17K      -0.140000
      5 CAO         -0.2730     1.1590     2.1240 ca         1 17K      -0.121500
      6 CAY         -0.9630     0.2590     1.3010 ca         1 17K      -0.060300
      7 CAS         -2.4190     0.4090     1.0500 c3         1 17K      -0.105100
      8 CAX         -2.8450     1.8000     0.6940 c          1 17K       0.696100
      9 OAD         -2.4570     2.8850     1.1320 o          1 17K      -0.577000
     10 OAV         -3.7880     1.7990    -0.3050 os         1 17K      -0.428900
     11 CG1         -4.5920     2.9680    -0.4600 c3         1 17K       0.162400
     12 CB          -6.0690     2.5850    -0.5160 c3         1 17K      -0.041700
     13 SBE         -7.0370     3.8800    -1.2710 s4         1 17K       0.563700
     14 OAE         -6.2780     4.3590    -2.4420 o          1 17K      -0.556200
     15 OAF         -6.6440     5.2130    -0.2770 oh         1 17K      -0.606800
     16 CG2         -6.2760     1.3750    -1.4040 c3         1 17K      -0.086100
     17 CA          -6.6190     2.3460     0.9090 c3         1 17K       0.052500
     18 C           -5.9650     1.0610     1.5420 c          1 17K       0.916600
     19 OXT         -6.5350    -0.0460     1.3690 o          1 17K      -0.820800
     20 O           -4.9000     1.2450     2.1920 o          1 17K      -0.820800
     21 N           -8.0820     2.2770     0.8610 nu         1 17K      -0.701000
     22 CBA         -8.8180     2.5890     2.0090 cc         1 17K       0.192900
     23 NBD         -8.7030     3.7510     2.7910 na         1 17K       0.006700
     24 CAQ         -7.8870     4.8650     2.6830 cc         1 17K      -0.043300
     25 CAM         -7.9790     5.8860     3.5920 cd         1 17K      -0.194000
     26 CAL         -8.9250     5.8340     4.6640 cd         1 17K      -0.140000
     27 CAP         -9.7680     4.7690     4.7750 cc         1 17K      -0.104000
     28 CBB         -9.6940     3.7000     3.8280 cc         1 17K      -0.089300
     29 CAR        -10.4350     2.5250     3.6740 cd         1 17K      -0.152000
     30 CAZ         -9.9140     1.8300     2.5370 cd         1 17K      -0.291200
     31 CAH        -10.4290     0.5890     2.0160 c          1 17K       0.613100
     32 OAB        -10.2430     0.1690     0.8670 o          1 17K      -0.566100
     33 H1          -0.8040    -1.5370     0.0960 ha         1 17K       0.148000
     34 H2           1.6170    -1.8610     0.5680 ha         1 17K       0.119500
     35 H3           2.8340    -0.2530     2.0370 ha         1 17K       0.116000
     36 H4           1.6160     1.6870     3.0300 ha         1 17K       0.119500
     37 H5          -0.8160     2.0210     2.5490 ha         1 17K       0.148000
     38 H6          -2.7610    -0.2960     0.2440 hc         1 17K       0.118200
     39 H7          -3.0140     0.1540     1.9830 hc         1 17K       0.118200
     40 H8          -4.2860     3.4200    -1.4450 h1         1 17K       0.064200
     41 H9          -4.4090     3.6960     0.3750 h1         1 17K       0.064200
     42 H11         -5.9310     5.7330    -0.6550 ho         1 17K       0.440000
     43 H12         -5.9330     0.4520    -0.8680 hc         1 17K       0.055700
     44 H13         -7.3570     1.2460    -1.6590 hc         1 17K       0.055700
     45 H14         -5.6850     1.4840    -2.3450 hc         1 17K       0.055700
     46 H15         -6.2880     3.2120     1.5490 h1         1 17K       0.066700
     47 H17         -8.3510     1.3450     0.5510 hn         1 17K       0.442800
     48 H18         -7.1910     4.8990     1.8210 h4         1 17K       0.197000
     49 H19         -7.3210     6.7590     3.4940 ha         1 17K       0.140000
     50 H20         -8.9540     6.6660     5.3810 ha         1 17K       0.123000
     51 H21        -10.5180     4.6850     5.5720 ha         1 17K       0.132000
     52 H22        -11.2580     2.1960     4.3010 ha         1 17K       0.144000
     53 H23        -11.0550     0.0120     2.7370 h4         1 17K      -0.020800
@<TRIPOS>BOND
     1     1     2 ar  
     2     1     6 ar  
     3     1    33 1   
     4     2     3 ar  
     5     2    34 1   
     6     3     4 ar  
     7     3    35 1   
     8     4     5 ar  
     9     4    36 1   
    10     5     6 ar  
    11     5    37 1   
    12     6     7 1   
    13     7     8 1   
    14     7    38 1   
    15     7    39 1   
    16     8     9 2   
    17     8    10 1   
    18    10    11 1   
    19    11    12 1   
    20    11    40 1   
    21    11    41 1   
    22    12    13 1   
    23    12    16 1   
    24    12    17 1   
    25    13    14 2   
    26    13    15 1   
    27    15    42 1   
    28    16    43 1   
    29    16    44 1   
    30    16    45 1   
    31    17    18 1   
    32    17    21 1   
    33    17    46 1   
    34    18    19 1   
    35    18    20 1   
    36    21    22 1   
    37    21    47 1   
    38    22    23 1   
    39    22    30 2   
    40    23    24 1   
    41    23    28 1   
    42    24    25 2   
    43    24    48 1   
    44    25    26 1   
    45    25    49 1   
    46    26    27 2   
    47    26    50 1   
    48    27    28 1   
    49    27    51 1   
    50    28    29 2   
    51    29    30 1   
    52    29    52 1   
    53    30    31 1   
    54    31    32 2   
    55    31    53 1   
@<TRIPOS>SUBSTRUCTURE
     1 17K         1 TEMP              0 ****  ****    0 ROOT
