@<TRIPOS>MOLECULE
molecule
   53    55     1     0     0
SMALL
bcc


@<TRIPOS>ATOM
      1 CAN          0.0000     0.0000     0.0000 ca         1 17K      -0.108000
      2 CAJ          1.3820     0.0000     0.0000 ca         1 17K      -0.132000
      3 CAI          2.0740     0.0000     1.1970 ca         1 17K      -0.135000
      4 CAK          1.3810    -0.0000     2.3940 ca         1 17K      -0.132000
      5 CAO          0.0000     0.0000     2.3940 ca         1 17K      -0.108000
      6 CAY         -0.6910    -0.0010     1.1970 ca         1 17K      -0.058300
      7 CAS         -2.1980     0.0050     1.1970 c3         1 17K      -0.085100
      8 CAX         -2.7070    -1.4130     1.1930 c          1 17K       0.632100
      9 OAD         -1.9250    -2.3350     1.1900 o          1 17K      -0.544000
     10 OAV         -4.0270    -1.6530     1.1910 os         1 17K      -0.424900
     11 CG1         -4.4450    -3.0440     1.1870 c3         1 17K       0.139400
     12 CB          -5.9720    -3.1180     1.1870 c3         1 17K      -0.027700
     13 SBE         -6.6180    -2.2980     2.6710 s4         1 17K       0.624700
     14 OAE         -6.0090    -1.0210     2.8080 o          1 17K      -0.578200
     15 OAF         -5.9940    -3.0990     3.8040 oh         1 17K      -0.636800
     16 CG2         -6.5170    -2.4180    -0.0600 c3         1 17K      -0.066100
     17 CA          -6.4120    -4.5840     1.1820 c3         1 17K       0.102500
     18 C           -5.7750    -5.2950     0.0160 c          1 17K       0.868600
     19 OXT         -4.4390    -5.3580    -0.0840 o          1 17K      -0.828800
     20 O           -6.4700    -5.8100    -0.8290 o          1 17K      -0.828800
     21 N           -7.8750    -4.6560     1.0610 nu         1 17K      -0.730000
     22 CBA         -8.3960    -5.6050     1.9200 cc         1 17K       0.226900
     23 NBD         -7.7250    -6.6680     2.4360 na         1 17K       0.032700
     24 CAQ         -6.4220    -7.0890     2.2710 cc         1 17K      -0.069300
     25 CAM         -5.9740    -8.1920     2.8950 cd         1 17K      -0.184000
     26 CAL         -6.8290    -8.9430     3.7310 cd         1 17K      -0.179000
     27 CAP         -8.1140    -8.5510     3.9100 cc         1 17K      -0.097000
     28 CBB         -8.5850    -7.3890     3.2520 cc         1 17K      -0.093300
     29 CAR         -9.8040    -6.7750     3.2500 cd         1 17K      -0.161000
     30 CAZ         -9.7020    -5.6330     2.4120 cd         1 17K      -0.319200
     31 CAH        -10.7300    -4.7030     2.1270 c          1 17K       0.613100
     32 OAB        -10.5120    -3.7660     1.3880 o          1 17K      -0.574100
     33 H1          -0.5420    -0.0000    -0.9380 ha         1 17K       0.131500
     34 H2           1.9230     0.0000    -0.9380 ha         1 17K       0.120500
     35 H3           3.1570    -0.0000     1.1970 ha         1 17K       0.118000
     36 H4           1.9230    -0.0000     3.3330 ha         1 17K       0.120500
     37 H5          -0.5410    -0.0000     3.3320 ha         1 17K       0.131500
     38 H6          -2.5570     0.5200     0.3140 hc         1 17K       0.073700
     39 H7          -2.5580     0.5150     2.0830 hc         1 17K       0.073700
     40 H8          -4.0600    -3.5340     0.3010 h1         1 17K       0.099200
     41 H9          -4.0590    -3.5390     2.0700 h1         1 17K       0.099200
     42 H11         -6.2960    -2.7620     4.6310 ho         1 17K       0.452000
     43 H12         -7.5900    -2.3010     0.0300 hc         1 17K       0.046367
     44 H13         -6.0540    -1.4430    -0.1580 hc         1 17K       0.046367
     45 H14         -6.2910    -3.0140    -0.9360 hc         1 17K       0.046367
     46 H15         -6.1030    -5.0570     2.1060 h1         1 17K       0.087700
     47 H17         -8.3130    -4.4860     0.1780 hn         1 17K       0.468800
     48 H18         -5.9150    -7.4040     1.3670 h4         1 17K       0.232000
     49 H19         -4.9590    -8.5650     2.9620 ha         1 17K       0.151000
     50 H20         -6.4580    -9.8300     4.2280 ha         1 17K       0.119000
     51 H21         -8.7240    -9.1600     4.5660 ha         1 17K       0.127000
     52 H22        -10.6850    -7.0950     3.7930 ha         1 17K       0.139000
     53 H23        -11.7070    -4.8200     2.5800 h4         1 17K      -0.026800
@<TRIPOS>BOND
     1     2     3 ar
     2     2     1 ar
     3    14    13 2
     4     3     4 ar
     5     1     6 ar
     6    15    13 1
     7    13    12 1
     8     9     8 2
     9    11    10 1
    10    11    12 1
    11     4     5 ar
    12     6     5 ar
    13     6     7 1
    14     8    10 1
    15     8     7 1
    16    12    16 1
    17    12    17 1
    18    17    21 1
    19    17    18 1
    20    24    25 2
    21    24    23 1
    22    21    22 1
    23    20    18 1
    24    25    26 1
    25    18    19 1
    26    23    22 1
    27    23    28 1
    28    22    30 2
    29    26    27 2
    30    32    31 2
    31    28    27 1
    32    28    29 2
    33    30    31 1
    34    30    29 1
    35     1    33 1
    36     2    34 1
    37     3    35 1
    38     4    36 1
    39     5    37 1
    40     7    38 1
    41     7    39 1
    42    11    40 1
    43    11    41 1
    44    15    42 1
    45    16    43 1
    46    16    44 1
    47    16    45 1
    48    17    46 1
    49    21    47 1
    50    24    48 1
    51    25    49 1
    52    26    50 1
    53    27    51 1
    54    29    52 1
    55    31    53 1
@<TRIPOS>SUBSTRUCTURE
     1 17K         1 TEMP              0 ****  ****    0 ROOT
