@<TRIPOS>MOLECULE
17L
   66    70     1     0     0
SMALL
bcc


@<TRIPOS>ATOM
      1 C1           0.0000     0.0000     0.0000 ce         1 17L      -0.407400
      2 C2           1.4050     0.0000     0.0000 cf         1 17L       0.323100
      3 C3           2.1580     0.0000     1.1840 cf         1 17L      -0.227000
      4 C4           1.5780     0.1590     2.3770 c2         1 17L       0.174900
      5 C5           0.0920     0.5220     2.4370 c3         1 17L      -0.101500
      6 C6          -0.7200     0.2230     1.2020 c          1 17L       0.657300
      7 O7           1.8790    -0.0120     3.6790 os         1 17L      -0.173200
      8 C8           0.8230    -0.6440     4.2740 ca         1 17L       0.202100
      9 C9          -0.3500    -0.3650     3.5750 ca         1 17L      -0.250300
     10 C10          0.7590    -1.4730     5.4050 ca         1 17L      -0.220600
     11 C11         -0.4760    -1.9950     5.8180 ca         1 17L       0.252100
     12 C12         -1.6270    -1.6990     5.1120 ca         1 17L      -0.332000
     13 C13         -1.5610    -0.8810     3.9890 ca         1 17L       0.272100
     14 O14         -1.9330     0.1770     1.2370 o          1 17L      -0.536100
     15 C15         -0.7010    -0.2180    -1.2070 c          1 17L       0.635300
     16 C16         -2.2080    -0.2530    -1.2070 c3         1 17L      -0.090100
     17 O17         -0.0910    -0.3770    -2.2450 o          1 17L      -0.572100
     18 O18          2.0540    -0.0010    -1.1820 oh         1 17L      -0.447100
     19 C19         -0.0690     1.9950     2.8170 c3         1 17L       0.032900
     20 O20         -2.6920    -0.5910     3.2960 oh         1 17L      -0.442100
     21 C21          1.9830    -1.7930     6.1550 c          1 17L       0.610700
     22 O22          2.3360    -1.0810     7.0750 o          1 17L      -0.636100
     23 N23          2.7130    -2.8760     5.8220 ns         1 17L      -0.186900
     24 C24          3.9320    -3.1960     6.5680 c3         1 17L       0.104300
     25 C25          4.5560    -4.4440     6.0010 ca         1 17L      -0.078300
     26 C26          4.3700    -5.6420     6.6180 ca         1 17L      -0.104000
     27 C27          4.9410    -6.8110     6.1060 ca         1 17L       0.156100
     28 C28          5.7020    -6.7810     4.9730 ca         1 17L      -0.213000
     29 C29          5.9150    -5.5600     4.3110 ca         1 17L       0.009000
     30 C30          5.3290    -4.3780     4.8280 ca         1 17L      -0.057000
     31 C31          6.6910    -5.4900     3.1420 ca         1 17L      -0.099000
     32 C32          6.8760    -4.2900     2.5270 ca         1 17L      -0.088000
     33 C33          6.3060    -3.1270     3.0390 ca         1 17L      -0.107000
     34 C34          5.5360    -3.1580     4.1620 ca         1 17L      -0.091000
     35 O35         -0.5400    -2.7950     6.9130 os         1 17L      -0.297900
     36 C36         -1.8300    -3.2920     7.2780 c3         1 17L       0.245700
     37 O37          4.7360    -7.9920     6.7450 os         1 17L      -0.307900
     38 C38          5.3460    -9.1530     6.1750 c3         1 17L       0.201400
     39 C39          5.0060   -10.3770     7.0260 c3         1 17L       0.000900
     40 H3           3.2390    -0.0020     1.1210 ha         1 17L       0.130000
     41 H12         -2.5800    -2.1030     5.4320 ha         1 17L       0.139000
     42 H16         -2.5660    -0.3940    -2.2200 hc         1 17L       0.030033
     43 H16A        -2.5910     0.6820    -0.8160 hc         1 17L       0.030033
     44 H16B        -2.5510    -1.0710    -0.5860 hc         1 17L       0.030033
     45 HO18         2.6280     0.7470    -1.2270 ho         1 17L       0.412000
     46 H19          0.3170     2.6180     2.0190 hc         1 17L       0.018033
     47 H19A         0.4800     2.1960     3.7290 hc         1 17L       0.018033
     48 H19B        -1.1180     2.2160     2.9710 hc         1 17L       0.018033
     49 HO20        -3.4120    -0.4950     3.8970 ho         1 17L       0.397000
     50 HN23         2.4030    -3.4810     5.0870 hn         1 17L       0.181500
     51 H24          4.6320    -2.3730     6.4860 h1         1 17L       0.034200
     52 H24A         3.6850    -3.3570     7.6110 h1         1 17L       0.034200
     53 H26          3.7690    -5.6910     7.5180 ha         1 17L       0.121000
     54 H28          6.1400    -7.6930     4.5860 ha         1 17L       0.128000
     55 H31          7.1410    -6.3860     2.7330 ha         1 17L       0.107000
     56 H32          7.4840    -4.2370     1.6320 ha         1 17L       0.101000
     57 H33          6.4690    -2.1840     2.5300 ha         1 17L       0.101000
     58 H34          5.0990    -2.2450     4.5480 ha         1 17L       0.116000
     59 H36         -2.2340    -3.8800     6.4630 h1         1 17L       0.001367
     60 H36A        -2.4920    -2.4600     7.4860 h1         1 17L       0.001367
     61 H36B        -1.7410    -3.9120     8.1620 h1         1 17L       0.001367
     62 H38          6.4210    -9.0190     6.1470 h1         1 17L       0.000700
     63 H38A         4.9740    -9.2990     5.1680 h1         1 17L       0.000700
     64 H39          5.1400   -11.2760     6.4360 hc         1 17L       0.012033
     65 H39A         5.6610   -10.4110     7.8890 hc         1 17L       0.012033
     66 H39B         3.9770   -10.3130     7.3570 hc         1 17L       0.012033
@<TRIPOS>BOND
     1     1     2 2   
     2     1     6 1   
     3     1    15 1   
     4     2     3 1   
     5     2    18 1   
     6     3     4 2   
     7     3    40 1   
     8     4     5 1   
     9     4     7 1   
    10     5     6 1   
    11     5     9 1   
    12     5    19 1   
    13     6    14 2   
    14     7     8 1   
    15     8     9 ar  
    16     8    10 ar  
    17     9    13 ar  
    18    10    11 ar  
    19    10    21 1   
    20    11    12 ar  
    21    11    35 1   
    22    12    13 ar  
    23    12    41 1   
    24    13    20 1   
    25    15    16 1   
    26    15    17 2   
    27    16    42 1   
    28    16    43 1   
    29    16    44 1   
    30    18    45 1   
    31    19    46 1   
    32    19    47 1   
    33    19    48 1   
    34    20    49 1   
    35    21    22 2   
    36    21    23 1   
    37    23    24 1   
    38    23    50 1   
    39    24    25 1   
    40    24    51 1   
    41    24    52 1   
    42    25    26 ar  
    43    25    30 ar  
    44    26    27 ar  
    45    26    53 1   
    46    27    28 ar  
    47    27    37 1   
    48    28    29 ar  
    49    28    54 1   
    50    29    30 ar  
    51    29    31 ar  
    52    30    34 ar  
    53    31    32 ar  
    54    31    55 1   
    55    32    33 ar  
    56    32    56 1   
    57    33    34 ar  
    58    33    57 1   
    59    34    58 1   
    60    35    36 1   
    61    36    59 1   
    62    36    60 1   
    63    36    61 1   
    64    37    38 1   
    65    38    39 1   
    66    38    62 1   
    67    38    63 1   
    68    39    64 1   
    69    39    65 1   
    70    39    66 1   
@<TRIPOS>SUBSTRUCTURE
     1 17L         1 TEMP              0 ****  ****    0 ROOT
