@<TRIPOS>MOLECULE
17L
   67    71     1     0     0
SMALL
bcc


@<TRIPOS>ATOM
      1 C1           0.2960     0.3430    -0.0610 ce         1 17L      -0.348400
      2 C2           1.5920     0.7030     0.1950 cf         1 17L       0.233100
      3 C3           2.1790     0.5600     1.5280 cf         1 17L      -0.191000
      4 C4           1.3150     0.3740     2.5370 c2         1 17L       0.085900
      5 C5          -0.1990     0.4460     2.4050 c3         1 17L      -0.062500
      6 C6          -0.5940    -0.0910     1.0300 c          1 17L       0.614300
      7 O7           1.6970    -0.0760     3.8210 os         1 17L      -0.201200
      8 C8           0.5340    -0.5690     4.4100 ca         1 17L       0.244100
      9 C9          -0.6170    -0.3300     3.6260 ca         1 17L      -0.204300
     10 C10          0.5230    -1.2580     5.6310 ca         1 17L      -0.294600
     11 C11         -0.7590    -1.7140     6.0640 ca         1 17L       0.243100
     12 C12         -1.9140    -1.4720     5.3280 ca         1 17L      -0.320000
     13 C13         -1.8560    -0.7590     4.1030 ca         1 17L       0.297100
     14 O14         -1.6000    -0.7820     0.8710 o          1 17L      -0.494100
     15 C15         -0.2320     0.2990    -1.4500 c          1 17L       0.602300
     16 C16         -1.5490     0.9680    -1.6640 c3         1 17L      -0.198100
     17 O17          0.3920    -0.2600    -2.3540 o          1 17L      -0.499100
     18 O18          2.3650     1.1580    -0.8310 oh         1 17L      -0.447100
     19 C19         -0.7020     1.8840     2.5030 c3         1 17L      -0.083100
     20 O20         -2.9660    -0.4470     3.3890 oh         1 17L      -0.434100
     21 C21          1.7640    -1.4010     6.3730 c          1 17L       0.596700
     22 O22          2.7130    -0.6280     6.4170 o          1 17L      -0.426100
     23 N23          1.9130    -2.6790     7.1710 ny         1 17L      -0.668800
     24 C24          3.3390    -3.0860     7.3860 c3         1 17L       0.173100
     25 C25          3.4140    -4.3100     8.2370 ca         1 17L      -0.150300
     26 C26          3.7130    -5.5130     7.6380 ca         1 17L      -0.089000
     27 C27          3.8050    -6.6980     8.4260 ca         1 17L       0.129100
     28 C28          3.5890    -6.6490     9.7890 ca         1 17L      -0.163000
     29 C29          3.2840    -5.4130    10.4150 ca         1 17L      -0.006000
     30 C30          3.2010    -4.2210     9.6460 ca         1 17L      -0.049000
     31 C31          3.0630    -5.3530    11.8210 ca         1 17L      -0.106000
     32 C32          2.7820    -4.1580    12.4340 ca         1 17L      -0.114000
     33 C33          2.7200    -2.9660    11.6720 ca         1 17L      -0.095000
     34 C34          2.9230    -2.9980    10.3140 ca         1 17L      -0.164000
     35 O35         -0.7630    -2.3970     7.2580 os         1 17L      -0.381900
     36 C36         -2.0370    -2.7490     7.8110 c3         1 17L       0.116700
     37 O37          4.0800    -7.8230     7.6870 os         1 17L      -0.325900
     38 C38          4.3520    -9.0400     8.3950 c3         1 17L       0.125400
     39 C39          5.7150    -9.0270     9.0390 c3         1 17L      -0.135100
     40 H3           3.2710     0.5350     1.6430 ha         1 17L       0.175000
     41 H12         -2.8940    -1.8250     5.6840 ha         1 17L       0.168000
     42 H16         -2.3440     0.4100    -1.1070 hc         1 17L       0.072367
     43 H16A        -1.8070     0.9780    -2.7520 hc         1 17L       0.072367
     44 H16B        -1.5120     2.0180    -1.2880 hc         1 17L       0.072367
     45 HO18         3.2800     1.2560    -0.5200 ho         1 17L       0.438000
     46 H19         -1.8200     1.8780     2.5130 hc         1 17L       0.065367
     47 H19A        -0.3310     2.3610     3.4410 hc         1 17L       0.065367
     48 H19B        -0.3450     2.4780     1.6270 hc         1 17L       0.065367
     49 HO20        -3.7360    -0.8990     3.7770 ho         1 17L       0.448000
     50 HN23         1.4050    -3.4310     6.6920 hn         1 17L       0.463800
     51 H24          3.7970    -3.2630     6.3700 hx         1 17L       0.114700
     52 H24A         3.8830    -2.2200     7.8670 hx         1 17L       0.114700
     53 H26          3.8970    -5.5980     6.5550 ha         1 17L       0.158000
     54 H28          3.6570    -7.5530    10.4150 ha         1 17L       0.160000
     55 H31          3.1280    -6.2850    12.4040 ha         1 17L       0.150000
     56 H32          2.6140    -4.1080    13.5220 ha         1 17L       0.154000
     57 H33          2.5170    -2.0140    12.1870 ha         1 17L       0.148000
     58 H34          2.9090    -2.0540     9.7490 ha         1 17L       0.114000
     59 H36         -2.6590    -1.8350     7.9650 h1         1 17L       0.069367
     60 H36A        -1.7640    -3.2160     8.7920 h1         1 17L       0.069367
     61 H36B        -2.5520    -3.4850     7.1480 h1         1 17L       0.069367
     62 H38          4.3020    -9.8030     7.5690 h1         1 17L       0.065700
     63 H38A         3.5390    -9.2440     9.1390 h1         1 17L       0.065700
     64 H39          5.7770    -8.2430     9.8320 hc         1 17L       0.055700
     65 H39A         6.5050    -8.8180     8.2780 hc         1 17L       0.055700
     66 H39B         5.9170   -10.0240     9.5010 hc         1 17L       0.055700
     67 H232         1.4580    -2.5440     8.0860 hn         1 17L       0.463800
@<TRIPOS>BOND
     1     1     2 2   
     2     1     6 1   
     3     1    15 1   
     4     2     3 1   
     5     2    18 1   
     6     3     4 2   
     7     3    40 1   
     8     4     5 1   
     9     4     7 1   
    10     5     6 1   
    11     5     9 1   
    12     5    19 1   
    13     6    14 2   
    14     7     8 1   
    15     8     9 ar  
    16     8    10 ar  
    17     9    13 ar  
    18    10    11 ar  
    19    10    21 1   
    20    11    12 ar  
    21    11    35 1   
    22    12    13 ar  
    23    12    41 1   
    24    13    20 1   
    25    15    16 1   
    26    15    17 2   
    27    16    42 1   
    28    16    43 1   
    29    16    44 1   
    30    18    45 1   
    31    19    46 1   
    32    19    47 1   
    33    19    48 1   
    34    20    49 1   
    35    21    22 2   
    36    21    23 1   
    37    23    24 1   
    38    23    50 1   
    39    23    67 1   
    40    24    25 1   
    41    24    51 1   
    42    24    52 1   
    43    25    26 ar  
    44    25    30 ar  
    45    26    27 ar  
    46    26    53 1   
    47    27    28 ar  
    48    27    37 1   
    49    28    29 ar  
    50    28    54 1   
    51    29    30 ar  
    52    29    31 ar  
    53    30    34 ar  
    54    31    32 ar  
    55    31    55 1   
    56    32    33 ar  
    57    32    56 1   
    58    33    34 ar  
    59    33    57 1   
    60    34    58 1   
    61    35    36 1   
    62    36    59 1   
    63    36    60 1   
    64    36    61 1   
    65    37    38 1   
    66    38    39 1   
    67    38    62 1   
    68    38    63 1   
    69    39    64 1   
    70    39    65 1   
    71    39    66 1   
@<TRIPOS>SUBSTRUCTURE
     1 17L         1 TEMP              0 ****  ****    0 ROOT
