@<TRIPOS>MOLECULE
17M
   43    46     1     0     0
SMALL
bcc


@<TRIPOS>ATOM
      1 CAR          1.4150    -0.1570     0.1450 c3         1 17M      -0.088100
      2 CAB         -0.0940    -0.0260     0.0220 c3         1 17M      -0.032000
      3 CAP         -0.7340    -0.0180     1.3980 c3         1 17M      -0.060400
      4 CAJ         -0.5200    -1.3410     2.1210 c3         1 17M      -0.036100
      5 CAF         -0.3660    -2.5580     1.2670 ca         1 17M      -0.052300
      6 CAG         -0.1400    -3.8160     1.9100 ca         1 17M      -0.060000
      7 CAK         -0.0930    -3.9450     3.3270 ca         1 17M      -0.084000
      8 CAN          0.1230    -5.1600     3.9260 ca         1 17M      -0.195000
      9 CAO          0.3060    -6.3170     3.1220 ca         1 17M       0.116100
     10 OAT          0.5270    -7.5590     3.6780 oh         1 17M      -0.498100
     11 CAL          0.2680    -6.2360     1.7430 ca         1 17M      -0.157000
     12 CAH          0.0430    -4.9820     1.1200 ca         1 17M      -0.006000
     13 CAM         -0.0000    -4.8790    -0.2970 ca         1 17M      -0.130000
     14 CAI         -0.2230    -3.6680    -0.8980 ca         1 17M      -0.110000
     15 CAE         -0.4100    -2.4990    -0.1180 ca         1 17M      -0.067300
     16 CAD         -0.7270    -1.2020    -0.7600 c3         1 17M      -0.028400
     17 CAQ         -0.3400    -0.9410    -2.2100 c3         1 17M      -0.066400
     18 CAC         -0.3410     0.5840    -2.3390 c3         1 17M      -0.106400
     19 CAA         -0.4350     1.1750    -0.9060 c3         1 17M       0.152800
     20 CAS          0.4700     2.3810    -0.7310 c3         1 17M      -0.115100
     21 OAU         -1.7820     1.5470    -0.6170 oh         1 17M      -0.597800
     22 HAR1         1.8960    -0.1290    -0.8620 hc         1 17M       0.040033
     23 HAR2         1.6790    -1.1260     0.6350 hc         1 17M       0.040033
     24 HAR3         1.8250     0.6760     0.7650 hc         1 17M       0.040033
     25 HAP1        -0.3030     0.8140     2.0140 hc         1 17M       0.054200
     26 HAP2        -1.8330     0.1850     1.2900 hc         1 17M       0.054200
     27 HAJ1        -1.3870    -1.5010     2.8190 hc         1 17M       0.049200
     28 HAJ2         0.4060    -1.2530     2.7540 hc         1 17M       0.049200
     29 HAK         -0.2350    -3.0500     3.9530 ha         1 17M       0.135000
     30 HAN          0.1570    -5.2530     5.0210 ha         1 17M       0.132000
     31 HAT          0.5220    -7.4570     4.6400 ho         1 17M       0.418000
     32 HAL          0.4090    -7.1360     1.1280 ha         1 17M       0.150000
     33 HAM          0.1470    -5.7890    -0.8970 ha         1 17M       0.134000
     34 HAI         -0.2630    -3.5810    -1.9950 ha         1 17M       0.134000
     35 HAD         -1.8510    -1.0760    -0.6930 hc         1 17M       0.076700
     36 HAQ1         0.6730    -1.3580    -2.4370 hc         1 17M       0.045700
     37 HAQ2        -1.0690    -1.4080    -2.9150 hc         1 17M       0.045700
     38 HAC1        -1.2140     0.9270    -2.9460 hc         1 17M       0.047200
     39 HAC2         0.5930     0.9360    -2.8410 hc         1 17M       0.047200
     40 HAS1         0.4640     2.7060     0.3370 hc         1 17M       0.043700
     41 HAS2         1.5170     2.1420    -1.0320 hc         1 17M       0.043700
     42 HAS3         0.1040     3.2260    -1.3630 hc         1 17M       0.043700
     43 HAU         -2.0080     2.2640    -1.2210 ho         1 17M       0.398000
@<TRIPOS>BOND
     1     1     2 1   
     2     1    22 1   
     3     1    23 1   
     4     1    24 1   
     5     2     3 1   
     6     2    16 1   
     7     2    19 1   
     8     3     4 1   
     9     3    25 1   
    10     3    26 1   
    11     4     5 1   
    12     4    27 1   
    13     4    28 1   
    14     5     6 ar  
    15     5    15 ar  
    16     6     7 ar  
    17     6    12 ar  
    18     7     8 ar  
    19     7    29 1   
    20     8     9 ar  
    21     8    30 1   
    22     9    10 1   
    23     9    11 ar  
    24    10    31 1   
    25    11    12 ar  
    26    11    32 1   
    27    12    13 ar  
    28    13    14 ar  
    29    13    33 1   
    30    14    15 ar  
    31    14    34 1   
    32    15    16 1   
    33    16    17 1   
    34    16    35 1   
    35    17    18 1   
    36    17    36 1   
    37    17    37 1   
    38    18    19 1   
    39    18    38 1   
    40    18    39 1   
    41    19    20 1   
    42    19    21 1   
    43    20    40 1   
    44    20    41 1   
    45    20    42 1   
    46    21    43 1   
@<TRIPOS>SUBSTRUCTURE
     1 17M         1 TEMP              0 ****  ****    0 ROOT
