@<TRIPOS>MOLECULE
molecule
   43    46     1     0     0
SMALL
bcc


@<TRIPOS>ATOM
      1 CAR          1.5300     0.0000     0.0000 c3         1 17M      -0.090100
      2 CAB          0.0000     0.0000     0.0000 c3         1 17M      -0.049000
      3 CAP         -0.5140     0.0000     1.4200 c3         1 17M      -0.053400
      4 CAJ          0.2410    -1.0950     2.1830 c3         1 17M      -0.037100
      5 CAF          0.4670    -2.3400     1.3660 ca         1 17M      -0.059300
      6 CAG          1.0670    -3.4420     2.0170 ca         1 17M      -0.044000
      7 CAK          1.3810    -3.3750     3.3860 ca         1 17M      -0.108000
      8 CAN          1.9680    -4.4410     3.9950 ca         1 17M      -0.151000
      9 CAO          2.2630    -5.6050     3.2800 ca         1 17M       0.104100
     10 OAT          2.8500    -6.6520     3.9160 oh         1 17M      -0.524100
     11 CAL          1.9690    -5.7030     1.9500 ca         1 17M      -0.141000
     12 CAH          1.3620    -4.6210     1.2920 ca         1 17M      -0.025000
     13 CAM          1.0430    -4.6860    -0.0750 ca         1 17M      -0.122000
     14 CAI          0.4490    -3.6190    -0.6690 ca         1 17M      -0.115000
     15 CAE          0.1540    -2.4550     0.0430 ca         1 17M      -0.062300
     16 CAD         -0.5150    -1.3150    -0.6480 c3         1 17M      -0.029400
     17 CAQ         -0.1710    -1.0900    -2.1210 c3         1 17M      -0.071400
     18 CAC         -0.5680     0.3960    -2.3430 c3         1 17M      -0.109400
     19 CAA         -0.5160     1.0740    -0.9490 c3         1 17M       0.159800
     20 CAS          0.4440     2.2650    -0.9750 c3         1 17M      -0.116100
     21 OAU         -1.8220     1.4980    -0.5550 oh         1 17M      -0.599800
     22 HAR1         1.8910     0.7690     0.6720 hc         1 17M       0.042033
     23 HAR2         1.8910    -0.9660     0.3300 hc         1 17M       0.042033
     24 HAR3         1.8910     0.1970    -1.0020 hc         1 17M       0.042033
     25 HAP1        -1.5760    -0.2150     1.4250 hc         1 17M       0.054200
     26 HAP2        -0.3260     0.9630     1.8790 hc         1 17M       0.054200
     27 HAJ1         1.2030    -0.7030     2.4900 hc         1 17M       0.051700
     28 HAJ2        -0.3310    -1.3590     3.0650 hc         1 17M       0.051700
     29 HAK          1.1580    -2.4790     3.9530 ha         1 17M       0.138000
     30 HAN          2.2100    -4.3860     5.0500 ha         1 17M       0.137000
     31 HAT          2.1850    -7.1960     4.3060 ho         1 17M       0.418000
     32 HAL          2.2020    -6.6110     1.4060 ha         1 17M       0.143000
     33 HAM          1.4080    -5.5080    -0.6780 ha         1 17M       0.134000
     34 HAI          0.1970    -3.6730    -1.7220 ha         1 17M       0.131000
     35 HAD         -1.5890    -1.3890    -0.5280 hc         1 17M       0.078700
     36 HAQ1         0.8900    -1.2320    -2.2920 hc         1 17M       0.048700
     37 HAQ2        -0.7590    -1.7420    -2.7550 hc         1 17M       0.048700
     38 HAC1         0.1370     0.8720    -3.0140 hc         1 17M       0.050200
     39 HAC2        -1.5720     0.4540    -2.7470 hc         1 17M       0.050200
     40 HAS1         0.6830     2.5580     0.0410 hc         1 17M       0.042033
     41 HAS2        -0.0250     3.0950    -1.4890 hc         1 17M       0.042033
     42 HAS3         1.3530     1.9860    -1.4930 hc         1 17M       0.042033
     43 HAU         -2.0830     2.2380    -1.0780 ho         1 17M       0.401000
@<TRIPOS>BOND
     1     1     2 1
     2     1    22 1
     3     1    23 1
     4     1    24 1
     5     2     3 1
     6     2    16 1
     7     2    19 1
     8     3     4 1
     9     3    25 1
    10     3    26 1
    11     4     5 1
    12     4    27 1
    13     4    28 1
    14     5     6 ar
    15     5    15 ar
    16     6     7 ar
    17     6    12 ar
    18     7     8 ar
    19     7    29 1
    20     8     9 ar
    21     8    30 1
    22     9    10 1
    23     9    11 ar
    24    10    31 1
    25    11    12 ar
    26    11    32 1
    27    12    13 ar
    28    13    14 ar
    29    13    33 1
    30    14    15 ar
    31    14    34 1
    32    15    16 1
    33    16    17 1
    34    16    35 1
    35    17    18 1
    36    17    36 1
    37    17    37 1
    38    18    19 1
    39    18    38 1
    40    18    39 1
    41    19    20 1
    42    19    21 1
    43    20    40 1
    44    20    41 1
    45    20    42 1
    46    21    43 1
@<TRIPOS>SUBSTRUCTURE
     1 17M         1 TEMP              0 ****  ****    0 ROOT
