@<TRIPOS>MOLECULE
17M
   43    46     1     0     0
SMALL
bcc


@<TRIPOS>ATOM
      1 CAR         1.6700    0.1960   -0.1850 c3        1 17M     -0.088100
      2 CAB         0.1640    0.0550   -0.0390 c3        1 17M     -0.032000
      3 CAP        -0.2250    0.0740    1.4270 c3        1 17M     -0.060400
      4 CAJ         0.3470   -1.1240    2.1720 c3        1 17M     -0.036100
      5 CAF         0.5780   -2.3670    1.3740 ca        1 17M     -0.052300
      6 CAG         1.1380   -3.5060    2.0350 ca        1 17M     -0.060000
      7 CAK         1.4450   -3.5000    3.4250 ca        1 17M     -0.084000
      8 CAN         1.9800   -4.6020    4.0420 ca        1 17M     -0.195000
      9 CAO         2.2360   -5.7770    3.2840 ca        1 17M      0.116100
     10 OAT         2.7730   -6.9080    3.8590 oh        1 17M     -0.498100
     11 CAL         1.9520   -5.8250    1.9330 ca        1 17M     -0.157000
     12 CAH         1.3980   -4.6870    1.2920 ca        1 17M     -0.006000
     13 CAM         1.0990   -4.7180   -0.0980 ca        1 17M     -0.130000
     14 CAI         0.5570   -3.6210   -0.7150 ca        1 17M     -0.110000
     15 CAE         0.2910   -2.4390    0.0180 ca        1 17M     -0.067300
     16 CAD        -0.3630   -1.2770   -0.6270 c3        1 17M     -0.028400
     17 CAQ        -0.2810   -1.0810   -2.1350 c3        1 17M     -0.066400
     18 CAC        -0.5850    0.4040   -2.3470 c3        1 17M     -0.106400
     19 CAA        -0.5440    1.0930   -0.9570 c3        1 17M      0.152800
     20 CAS         0.1390    2.4470   -1.0170 c3        1 17M     -0.115100
     21 OAU        -1.8690    1.2520   -0.4490 oh        1 17M     -0.597800
     22 HAR1        1.9610    0.2180   -1.2630 hc        1 17M      0.040033
     23 HAR2        2.1880   -0.6650    0.3020 hc        1 17M      0.040033
     24 HAR3        2.0170    1.1390    0.3020 hc        1 17M      0.040033
     25 HAP1       -1.3450    0.0740    1.5080 hc        1 17M      0.054200
     26 HAP2        0.1420    1.0180    1.9060 hc        1 17M      0.054200
     27 HAJ1        1.3350   -0.8230    2.6210 hc        1 17M      0.049200
     28 HAJ2       -0.3450   -1.3690    3.0240 hc        1 17M      0.049200
     29 HAK         1.2470   -2.5920    4.0150 ha        1 17M      0.135000
     30 HAN         2.2150   -4.5910    5.1160 ha        1 17M      0.132000
     31 HAT         2.9120   -6.7240    4.7990 ho        1 17M      0.418000
     32 HAL         2.1520   -6.7370    1.3530 ha        1 17M      0.150000
     33 HAM         1.3080   -5.6390   -0.6630 ha        1 17M      0.134000
     34 HAI         0.3190   -3.6390   -1.7900 ha        1 17M      0.134000
     35 HAD        -1.4640   -1.3400   -0.3640 hc        1 17M      0.076700
     36 HAQ1        0.7390   -1.3370   -2.5180 hc        1 17M      0.045700
     37 HAQ2       -1.0200   -1.7270   -2.6690 hc        1 17M      0.045700
     38 HAC1        0.1690    0.8650   -3.0290 hc        1 17M      0.047200
     39 HAC2       -1.5970    0.5360   -2.8040 hc        1 17M      0.047200
     40 HAS1        0.2520    2.8590    0.0150 hc        1 17M      0.043700
     41 HAS2       -0.4780    3.1580   -1.6190 hc        1 17M      0.043700
     42 HAS3        1.1460    2.3660   -1.4890 hc        1 17M      0.043700
     43 HAU        -2.3220    1.8640   -1.0410 ho        1 17M      0.398000
@<TRIPOS>BOND
     1    1    2 1   
     2    1   22 1   
     3    1   23 1   
     4    1   24 1   
     5    2    3 1   
     6    2   16 1   
     7    2   19 1   
     8    3    4 1   
     9    3   25 1   
    10    3   26 1   
    11    4    5 1   
    12    4   27 1   
    13    4   28 1   
    14    5    6 ar  
    15    5   15 ar  
    16    6    7 ar  
    17    6   12 ar  
    18    7    8 ar  
    19    7   29 1   
    20    8    9 ar  
    21    8   30 1   
    22    9   10 1   
    23    9   11 ar  
    24   10   31 1   
    25   11   12 ar  
    26   11   32 1   
    27   12   13 ar  
    28   13   14 ar  
    29   13   33 1   
    30   14   15 ar  
    31   14   34 1   
    32   15   16 1   
    33   16   17 1   
    34   16   35 1   
    35   17   18 1   
    36   17   36 1   
    37   17   37 1   
    38   18   19 1   
    39   18   38 1   
    40   18   39 1   
    41   19   20 1   
    42   19   21 1   
    43   20   40 1   
    44   20   41 1   
    45   20   42 1   
    46   21   43 1   
@<TRIPOS>SUBSTRUCTURE
     1 17M         1 TEMP              0 ****  ****    0 ROOT
