@<TRIPOS>MOLECULE
17N
   35    38     1     0     0
SMALL
bcc


@<TRIPOS>ATOM
      1 CAA         1.1740   -0.8340   -0.4710 c3        1 17N      0.114700
      2 OAB         7.5950   -2.2190   -0.0340 o         1 17N     -0.817800
      3 OAC         6.6860    1.8260   -1.0790 o         1 17N     -0.819300
      4 OAD         9.2990   -0.7720    0.0200 o         1 17N     -0.817800
      5 OAE         5.5610    0.2280   -2.1650 o         1 17N     -0.819300
      6 CAF         1.7910    0.4180    3.8900 ca        1 17N     -0.184000
      7 CAG         1.0870    0.3570    2.6790 ca        1 17N     -0.161000
      8 CAH         3.1740    0.4150    3.8990 ca        1 17N     -0.110000
      9 CAI         8.1760   -0.3050    2.6330 ca        1 17N     -0.125000
     10 CAJ         3.9640    0.4460    0.2550 ca        1 17N     -0.210000
     11 CAK         6.9700    0.5580    5.9460 c3        1 17N      0.326200
     12 OAL         1.0550    0.3550    0.3060 os        1 17N     -0.357900
     13 OAM         8.0660    0.2220    5.0820 os        1 17N     -0.358900
     14 OAN         5.7720    0.6080    5.1550 os        1 17N     -0.360900
     15 CAO         8.1400   -1.1470    0.3440 c         1 17N      0.933200
     16 CAP         7.5280    0.0850    3.7940 ca        1 17N      0.034100
     17 CAQ         1.7970    0.3310    1.4860 ca        1 17N      0.074100
     18 CAR         7.4130   -0.3690    1.4580 ca        1 17N     -0.040600
     19 CAS         5.3310    0.3560    0.2230 ca        1 17N     -0.009600
     20 CAT         6.1490    0.3290    3.8270 ca        1 17N     -0.003900
     21 CAU         3.2180    0.3650    1.4640 ca        1 17N     -0.006000
     22 CAV         3.9160    0.3700    2.6990 ca        1 17N     -0.033000
     23 CAW         6.0620    0.0700    1.4360 ca        1 17N      0.013000
     24 CAX         5.3560    0.2800    2.6740 ca        1 17N     -0.016000
     25 CAY         5.9530    0.8020   -1.1120 c         1 17N      0.931200
     26 HAA         0.7980   -0.5380   -1.4820 h1        1 17N      0.037033
     27 HAAA        2.2320   -1.1870   -0.5330 h1        1 17N      0.037033
     28 HAAB        0.5250   -1.6290   -0.0290 h1        1 17N      0.037033
     29 HAF         1.2330    0.4560    4.8350 ha        1 17N      0.099000
     30 HAG        -0.0100    0.3410    2.6680 ha        1 17N      0.111000
     31 HAH         3.6990    0.4380    4.8650 ha        1 17N      0.137000
     32 HAI         9.2420   -0.5670    2.6110 ha        1 17N      0.158000
     33 HAJ         3.4200    0.6350   -0.6850 ha        1 17N      0.146000
     34 HAK         6.8590   -0.2430    6.7190 h2        1 17N      0.030700
     35 HAKA        7.1540    1.5690    6.3890 h2        1 17N      0.030700
@<TRIPOS>BOND
     1    1   12 1   
     2    1   26 1   
     3    1   27 1   
     4    1   28 1   
     5    2   15 1   
     6    3   25 1   
     7    4   15 1   
     8    5   25 1   
     9    6    7 ar  
    10    6    8 ar  
    11    6   29 1   
    12    7   17 ar  
    13    7   30 1   
    14    8   22 ar  
    15    8   31 1   
    16    9   16 ar  
    17    9   18 ar  
    18    9   32 1   
    19   10   19 ar  
    20   10   21 ar  
    21   10   33 1   
    22   11   13 1   
    23   11   14 1   
    24   11   34 1   
    25   11   35 1   
    26   12   17 1   
    27   13   16 1   
    28   14   20 1   
    29   15   18 1   
    30   16   20 ar  
    31   17   21 ar  
    32   18   23 ar  
    33   19   23 ar  
    34   19   25 1   
    35   20   24 ar  
    36   21   22 ar  
    37   22   24 ar  
    38   23   24 ar  
@<TRIPOS>SUBSTRUCTURE
     1 17N         1 TEMP              0 ****  ****    0 ROOT
