@<TRIPOS>MOLECULE
molecule
   35    38     1     0     0
SMALL
bcc


@<TRIPOS>ATOM
      1 CAA          0.0000     0.0000     0.0000 c3         1 17N       0.135700
      2 OAB          8.4910    -0.9750    -0.4290 o          1 17N      -0.799800
      3 OAC          7.0680     0.9780    -1.3650 o          1 17N      -0.802800
      4 OAD          9.2690     1.0640    -0.0120 o          1 17N      -0.799800
      5 OAE          6.3520    -1.0530    -1.9060 o          1 17N      -0.802800
      6 CAF          1.9160     0.0000     3.6100 ca         1 17N      -0.164000
      7 CAG          1.2960    -0.0010     2.3680 ca         1 17N      -0.241000
      8 CAH          3.2890     0.0010     3.7120 ca         1 17N      -0.130000
      9 CAI          8.3280     0.0140     2.7800 ca         1 17N      -0.134000
     10 CAJ          4.2280    -0.0010     0.1140 ca         1 17N      -0.202000
     11 CAK          6.7940     0.4450     5.9940 c3         1 17N       0.329200
     12 OAL          1.4290     0.0000     0.0000 os         1 17N      -0.312900
     13 OAM          7.9600     0.0320     5.2580 os         1 17N      -0.350900
     14 OAN          5.6990     0.0190     5.1610 os         1 17N      -0.346900
     15 CAO          8.5100    -0.0050     0.3040 c          1 17N       0.886200
     16 CAP          7.5780     0.0210     3.9460 ca         1 17N       0.030100
     17 CAQ          2.0450     0.0000     1.2100 ca         1 17N       0.110100
     18 CAR          7.7040     0.0030     1.5340 ca         1 17N       0.000400
     19 CAS          5.6070     0.0020     0.1670 ca         1 17N       0.022400
     20 CAT          6.1880     0.0140     3.8900 ca         1 17N      -0.021900
     21 CAU          3.4530     0.0010     1.2860 ca         1 17N       0.009000
     22 CAV          4.0740    -0.0020     2.5570 ca         1 17N      -0.034000
     23 CAW          6.2940    -0.0030     1.4600 ca         1 17N      -0.016000
     24 CAX          5.5380     0.0020     2.6470 ca         1 17N      -0.010000
     25 CAY          6.3890     0.0110    -1.0800 c          1 17N       0.884200
     26 HAA         -0.3610     0.8840     0.5110 h1         1 17N       0.023033
     27 HAAA        -0.3610    -0.8850     0.5100 h1         1 17N       0.023033
     28 HAAB        -0.3610     0.0000    -1.0210 h1         1 17N       0.023033
     29 HAF          1.3120    -0.0010     4.5100 ha         1 17N       0.094000
     30 HAG          0.2150    -0.0010     2.3080 ha         1 17N       0.099000
     31 HAH          3.7600     0.0020     4.6870 ha         1 17N       0.140000
     32 HAI          9.4100     0.0180     2.8390 ha         1 17N       0.140000
     33 HAJ          3.7340    -0.0060    -0.8500 ha         1 17N       0.147000
     34 HAK          6.7830     1.5220     6.1130 h2         1 17N       0.035700
     35 HAKA         6.7560    -0.0520     6.9550 h2         1 17N       0.035700
@<TRIPOS>BOND
     1     1    12 1
     2     1    26 1
     3     1    27 1
     4     1    28 1
     5     2    15 1
     6     3    25 1
     7    15     4 1
     8    25     5 1
     9     7     6 ar
    10     6     8 ar
    11     6    29 1
    12     7    17 ar
    13     7    30 1
    14     8    22 ar
    15     8    31 1
    16    18     9 ar
    17    16     9 ar
    18     9    32 1
    19    21    10 ar
    20    10    19 ar
    21    10    33 1
    22    14    11 1
    23    11    13 1
    24    11    34 1
    25    11    35 1
    26    12    17 1
    27    16    13 1
    28    20    14 1
    29    18    15 1
    30    20    16 ar
    31    17    21 ar
    32    23    18 ar
    33    19    25 1
    34    19    23 ar
    35    24    20 ar
    36    21    22 ar
    37    22    24 ar
    38    24    23 ar
@<TRIPOS>SUBSTRUCTURE
     1 17N         1 TEMP              0 ****  ****    0 ROOT
