@<TRIPOS>MOLECULE
17N
   35    38     1     0     0
SMALL
bcc


@<TRIPOS>ATOM
      1 CAA          1.4580     0.6220    -0.4050 c3         1 17N       0.114700
      2 OAB          9.1750    -1.6510     0.8370 o          1 17N      -0.817800
      3 OAC          6.0190    -3.5030    -0.3440 o          1 17N      -0.819300
      4 OAD          7.9600     0.2020     0.5420 o          1 17N      -0.817800
      5 OAE          5.4750    -1.7500    -1.6210 o          1 17N      -0.819300
      6 CAF          1.3790    -0.3890     4.0600 ca         1 17N      -0.184000
      7 CAG          0.8100    -0.2350     2.7880 ca         1 17N      -0.161000
      8 CAH          2.7010    -0.7690     4.1970 ca         1 17N      -0.110000
      9 CAI          7.7800    -1.5720     3.3580 ca         1 17N      -0.125000
     10 CAJ          3.7110    -1.3170     0.6500 ca         1 17N      -0.210000
     11 CAK          6.1430    -1.7900     6.5900 c3         1 17N       0.326200
     12 OAL          0.9510    -0.4190     0.4270 os         1 17N      -0.357900
     13 OAM          7.3490    -1.8440     5.8130 os         1 17N      -0.358900
     14 OAN          5.0410    -1.5700     5.6970 os         1 17N      -0.360900
     15 CAO          8.1500    -0.9440     1.0310 c          1 17N       0.933200
     16 CAP          6.9670    -1.6690     4.4750 ca         1 17N       0.034100
     17 CAQ          1.5830    -0.5040     1.6670 ca         1 17N       0.074100
     18 CAR          7.1540    -1.3960     2.1160 ca         1 17N      -0.040600
     19 CAS          5.0460    -1.6130     0.7390 ca         1 17N      -0.009600
     20 CAT          5.5760    -1.5180     4.3950 ca         1 17N      -0.003900
     21 CAU          2.9330    -0.9330     1.7770 ca         1 17N      -0.006000
     22 CAV          3.5100    -1.0300     3.0700 ca         1 17N      -0.033000
     23 CAW          5.7390    -1.4430     1.9960 ca         1 17N       0.013000
     24 CAX          4.9150    -1.3450     3.1730 ca         1 17N      -0.016000
     25 CAY          5.6110    -2.3220    -0.5050 c          1 17N       0.931200
     26 HAA          2.5740     0.6620    -0.3890 h1         1 17N       0.037033
     27 HAAA         1.0880     0.3600    -1.4270 h1         1 17N       0.037033
     28 HAAB         1.0300     1.6000    -0.0710 h1         1 17N       0.037033
     29 HAF          0.7660    -0.1930     4.9500 ha         1 17N       0.099000
     30 HAG         -0.2340     0.0840     2.6750 ha         1 17N       0.111000
     31 HAH          3.1270    -0.8570     5.2070 ha         1 17N       0.137000
     32 HAI          8.8750    -1.6190     3.4190 ha         1 17N       0.158000
     33 HAJ          3.2050    -1.4240    -0.3240 ha         1 17N       0.146000
     34 HAK          6.2090    -0.9280     7.3020 h2         1 17N       0.030700
     35 HAKA         6.0000    -2.7720     7.1080 h2         1 17N       0.030700
@<TRIPOS>BOND
     1     1    12 1   
     2     1    26 1   
     3     1    27 1   
     4     1    28 1   
     5     2    15 1   
     6     3    25 1   
     7     4    15 1   
     8     5    25 1   
     9     6     7 ar  
    10     6     8 ar  
    11     6    29 1   
    12     7    17 ar  
    13     7    30 1   
    14     8    22 ar  
    15     8    31 1   
    16     9    16 ar  
    17     9    18 ar  
    18     9    32 1   
    19    10    19 ar  
    20    10    21 ar  
    21    10    33 1   
    22    11    13 1   
    23    11    14 1   
    24    11    34 1   
    25    11    35 1   
    26    12    17 1   
    27    13    16 1   
    28    14    20 1   
    29    15    18 1   
    30    16    20 ar  
    31    17    21 ar  
    32    18    23 ar  
    33    19    23 ar  
    34    19    25 1   
    35    20    24 ar  
    36    21    22 ar  
    37    22    24 ar  
    38    23    24 ar  
@<TRIPOS>SUBSTRUCTURE
     1 17N         1 TEMP              0 ****  ****    0 ROOT
