@<TRIPOS>MOLECULE
17O
   30    32     1     0     0
SMALL
bcc


@<TRIPOS>ATOM
      1 OAC          0.0430    -0.2590    -0.1050 o          1 17O      -0.809300
      2 CAN          1.2530     0.0620    -0.0250 c          1 17O       0.920800
      3 OAB          1.8820     0.3230     1.0380 o          1 17O      -0.809300
      4 CAP          2.0550     0.1430    -1.3640 ce         1 17O       0.023800
      5 NAK          3.3570     0.6280    -1.2170 nu         1 17O      -0.559800
      6 CAE          4.3080     0.9590    -2.1110 c2         1 17O       0.187000
      7 CAF          1.4670    -0.2780    -2.5050 c2         1 17O      -0.144400
      8 SAM          2.0450    -0.3810    -4.0690 ss         1 17O      -0.279700
      9 CAS          3.0550     1.0870    -4.3030 c3         1 17O       0.063300
     10 CAO          4.2780     1.0970    -3.4830 ce         1 17O      -0.388400
     11 CAD          5.5420     1.2920    -4.1670 c          1 17O       0.598100
     12 OAA          5.6830     1.4200    -5.3930 o          1 17O      -0.608100
     13 CAQ          2.2100     2.2910    -4.1230 cc         1 17O       0.328600
     14 NAJ          2.0910     3.0050    -2.9630 nd         1 17O      -0.451800
     15 NAT          1.2490     4.0060    -3.2330 na         1 17O       0.072400
     16 CAI          0.5970     4.9320    -2.3430 c3         1 17O       0.166400
     17 SAL         -0.5510     5.8890    -3.3910 ss         1 17O      -0.370200
     18 CAH         -0.2560     4.9700    -4.9170 c3         1 17O       0.101000
     19 CAR          0.7450     3.9540    -4.5620 cd         1 17O      -0.147600
     20 CAG          1.3710     2.8680    -5.1690 cc         1 17O      -0.238300
     21 H2           3.5820     0.7740    -0.2420 hn         1 17O       0.470800
     22 H5           0.4250    -0.6380    -2.3970 h4         1 17O       0.184000
     23 H6           3.3420     1.0220    -5.3940 h1         1 17O       0.104700
     24 H8           6.4440     1.3170    -3.5060 h4         1 17O      -0.042800
     25 H9           1.3370     5.6320    -1.8800 h2         1 17O       0.092700
     26 H10          0.1150     5.6720    -5.7000 h1         1 17O       0.083200
     27 H11         -1.2110     4.5060    -5.2580 h1         1 17O       0.083200
     28 H12          1.2760     2.5040    -6.1840 ha         1 17O       0.165000
     29 H13          0.0190     4.4020    -1.5410 h2         1 17O       0.092700
     30 H3           5.2920     1.1520    -1.6170 h4         1 17O       0.114000
@<TRIPOS>BOND
     1     1     2 1   
     2     2     3 1   
     3     2     4 1   
     4     4     5 1   
     5     4     7 2   
     6     5     6 1   
     7     5    21 1   
     8     6    10 2   
     9     6    30 1   
    10     7     8 1   
    11     7    22 1   
    12     8     9 1   
    13     9    10 1   
    14     9    13 1   
    15     9    23 1   
    16    10    11 1   
    17    11    12 2   
    18    11    24 1   
    19    13    14 2   
    20    13    20 1   
    21    14    15 1   
    22    15    16 1   
    23    15    19 1   
    24    16    17 1   
    25    16    25 1   
    26    16    29 1   
    27    17    18 1   
    28    18    19 1   
    29    18    26 1   
    30    18    27 1   
    31    19    20 2   
    32    20    28 1   
@<TRIPOS>SUBSTRUCTURE
     1 17O         1 TEMP              0 ****  ****    0 ROOT
