@<TRIPOS>MOLECULE
17O
   30    32     1     0     0
SMALL
bcc


@<TRIPOS>ATOM
      1 OAC          0.0000     0.0000     0.0000 o          1 17O      -0.868800
      2 CAN          1.2170     0.0000     0.0000 c          1 17O       0.955800
      3 OAB          1.8920     0.0000     1.1690 o          1 17O      -0.868800
      4 CAP          1.9250    -0.0070    -1.2260 ce         1 17O      -0.044200
      5 NAK          1.2300    -0.0070    -2.4480 nu         1 17O      -0.173800
      6 CAE          1.2000     1.0560    -3.2670 c2         1 17O       0.090000
      7 CAF          3.2490    -0.0080    -1.2350 c2         1 17O      -0.016400
      8 SAM          4.1490     0.0280    -2.7490 ss         1 17O      -0.428700
      9 CAS          3.7040     1.6660    -3.3650 c3         1 17O       0.175300
     10 CAO          2.2450     1.7920    -3.6080 ce         1 17O      -0.420400
     11 CAD          1.9040     2.9260    -4.3560 c          1 17O       0.675100
     12 OAA          2.7720     3.6880    -4.7330 o          1 17O      -0.627100
     13 CAQ          4.4410     1.9220    -4.6550 cc         1 17O       0.438600
     14 NAJ          4.2760     1.2710    -5.7720 nd         1 17O      -0.608800
     15 NAT          5.1570     1.8140    -6.7400 na         1 17O       0.439400
     16 CAI          5.4590     1.5310    -8.1640 c3         1 17O       0.130400
     17 SAL          6.3230     3.0470    -8.7270 ss         1 17O      -0.418200
     18 CAH          6.8460     3.5360    -7.0370 c3         1 17O       0.206000
     19 CAR          5.8380     2.8050    -6.1570 cd         1 17O      -0.277600
     20 CAG          5.4130     2.9000    -4.8610 cc         1 17O      -0.250300
     21 H2           0.7380    -0.8350    -2.7190 hn         1 17O       0.284800
     22 H5           3.7880    -0.0340    -0.2960 h4         1 17O       0.169000
     23 H6           4.0010     2.4070    -2.6330 h1         1 17O       0.056700
     24 H8           0.8630     3.1470    -4.5600 h4         1 17O      -0.058800
     25 H9           6.1090     0.6690    -8.2510 h2         1 17O       0.053200
     26 H10          7.8400     3.1490    -6.8430 h1         1 17O       0.055700
     27 H11          6.7200     4.6050    -6.9170 h1         1 17O       0.055700
     28 H12          5.8080     3.5730    -4.1090 ha         1 17O       0.134000
     29 H13          4.5430     1.3860    -8.7250 h2         1 17O       0.053200
     30 H3           0.2390     1.3340    -3.6850 h4         1 17O       0.090000
@<TRIPOS>BOND
     1     1     2 1   
     2     2     3 1   
     3     2     4 1   
     4     4     5 1   
     5     4     7 2   
     6     5     6 1   
     7     5    21 1   
     8     6    10 2   
     9     6    30 1   
    10     7     8 1   
    11     7    22 1   
    12     8     9 1   
    13     9    10 1   
    14     9    13 1   
    15     9    23 1   
    16    10    11 1   
    17    11    12 2   
    18    11    24 1   
    19    13    14 2   
    20    13    20 1   
    21    14    15 1   
    22    15    16 1   
    23    15    19 1   
    24    16    17 1   
    25    16    25 1   
    26    16    29 1   
    27    17    18 1   
    28    18    19 1   
    29    18    26 1   
    30    18    27 1   
    31    19    20 2   
    32    20    28 1   
@<TRIPOS>SUBSTRUCTURE
     1 17O         1 TEMP              0 ****  ****    0 ROOT
