@<TRIPOS>MOLECULE
17P
   54    58     1     0     0
SMALL
bcc


@<TRIPOS>ATOM
      1 C            0.0790     0.2900     0.0810 cp         1 17P      -0.054000
      2 C1           1.5230     0.2330     0.1020 ca         1 17P      -0.032200
      3 N            1.9660     0.2970     1.4440 na         1 17P      -0.146300
      4 C2           0.8630     0.3910     2.2600 ca         1 17P       0.133800
      5 C3          -0.3430     0.3890     1.4650 cp         1 17P      -0.300300
      6 C4           0.7940     0.4820     3.6840 ca         1 17P      -0.448900
      7 C5          -0.5340     0.5620     4.2120 ca         1 17P       0.531200
      8 N6          -1.6520     0.5590     3.5250 nb         1 17P      -0.729000
      9 C7          -1.6060     0.4770     2.1180 ca         1 17P       0.788200
     10 C8          -0.5650     0.2440    -1.1530 ca         1 17P      -0.093000
     11 C9           0.1920     0.1420    -2.3140 ca         1 17P      -0.128000
     12 C10          1.6030     0.0850    -2.2910 ca         1 17P       0.065000
     13 C11          2.2810     0.1320    -1.0640 ca         1 17P      -0.128000
     14 C12          1.9920     0.4840     4.4390 c          1 17P       0.590700
     15 N13         -2.7590     0.5020     1.4040 nu         1 17P      -0.803900
     16 C14         -4.1010     0.5440     1.9710 c3         1 17P       0.213500
     17 C15         -5.0990     1.1360     0.9580 c3         1 17P      -0.091900
     18 C16         -6.4700     1.2480     1.5930 c3         1 17P      -0.076900
     19 C17         -6.9630    -0.0950     2.0900 c3         1 17P      -0.084400
     20 C18         -5.9710    -0.7230     3.0450 c3         1 17P      -0.076900
     21 C19         -4.5960    -0.8420     2.4200 c3         1 17P      -0.091900
     22 N20          1.8570     0.5890     5.9600 nz         1 17P      -0.758400
     23 O            3.1700     0.4160     4.0860 o          1 17P      -0.510100
     24 C21          2.3440    -0.0230    -3.5140 cc         1 17P      -0.249300
     25 C22          1.8830     0.1590    -4.8370 cd         1 17P      -0.109300
     26 N23          2.9770    -0.0510    -5.6750 na         1 17P       0.102400
     27 N24          4.0890    -0.3540    -4.9810 nd         1 17P      -0.493800
     28 C25          3.7510    -0.3460    -3.6700 cc         1 17P       0.319200
     29 C26          2.9360     0.0390    -7.1170 c3         1 17P       0.033600
     30 HN           2.9110     0.2810     1.7420 hn         1 17P       0.330700
     31 H5          -0.6970     0.6320     5.3060 h4         1 17P       0.003100
     32 H8          -1.6590     0.2870    -1.2380 ha         1 17P       0.129000
     33 H9          -0.3230     0.1000    -3.2870 ha         1 17P       0.143000
     34 H11          3.3790     0.0940    -1.0300 ha         1 17P       0.152000
     35 HN13        -2.6900     0.3820     0.4160 hn         1 17P       0.456800
     36 H14         -4.0810     1.2230     2.8760 h1         1 17P       0.087700
     37 H15         -4.7580     2.1510     0.6290 hc         1 17P       0.051950
     38 H15A        -5.1590     0.4790     0.0510 hc         1 17P       0.051950
     39 H16         -6.4310     1.9740     2.4470 hc         1 17P       0.052450
     40 H16A        -7.1890     1.6570     0.8370 hc         1 17P       0.052450
     41 H17         -7.9490     0.0370     2.6070 hc         1 17P       0.052700
     42 H17A        -7.1300    -0.7800     1.2180 hc         1 17P       0.052700
     43 H18         -6.3280    -1.7440     3.3410 hc         1 17P       0.052450
     44 H18A        -5.9060    -0.1060     3.9800 hc         1 17P       0.052450
     45 H19         -4.6410    -1.5350     1.5400 hc         1 17P       0.051950
     46 H19A        -3.8830    -1.2790     3.1660 hc         1 17P       0.051950
     47 HN20         2.7930     0.5830     6.3810 hn         1 17P       0.459133
     48 HN2A         1.3800     1.4580     6.2090 hn         1 17P       0.459133
     49 H22          0.8960     0.4190    -5.2190 h4         1 17P       0.180000
     50 H25          4.4770    -0.5690    -2.8880 h4         1 17P       0.045100
     51 H26          1.8990     0.3310    -7.4290 h1         1 17P       0.067367
     52 H26A         3.2010    -0.9540    -7.5690 h1         1 17P       0.067367
     53 H26B         3.6690     0.8110    -7.4740 h1         1 17P       0.067367
     54 H203         1.3200    -0.2030     6.3180 hn         1 17P       0.459133
@<TRIPOS>BOND
     1     1     2 ar  
     2     1     5 1   
     3     1    10 ar  
     4     2     3 1   
     5     2    13 ar  
     6     3     4 1   
     7     3    30 1   
     8     4     5 ar  
     9     4     6 ar  
    10     5     9 ar  
    11     6     7 ar  
    12     6    14 1   
    13     7     8 ar  
    14     7    31 1   
    15     8     9 ar  
    16     9    15 1   
    17    10    11 ar  
    18    10    32 1   
    19    11    12 ar  
    20    11    33 1   
    21    12    13 ar  
    22    12    24 1   
    23    13    34 1   
    24    14    22 1   
    25    14    23 2   
    26    15    16 1   
    27    15    35 1   
    28    16    17 1   
    29    16    21 1   
    30    16    36 1   
    31    17    18 1   
    32    17    37 1   
    33    17    38 1   
    34    18    19 1   
    35    18    39 1   
    36    18    40 1   
    37    19    20 1   
    38    19    41 1   
    39    19    42 1   
    40    20    21 1   
    41    20    43 1   
    42    20    44 1   
    43    21    45 1   
    44    21    46 1   
    45    22    47 1   
    46    22    48 1   
    47    22    54 1   
    48    24    25 2   
    49    24    28 1   
    50    25    26 1   
    51    25    49 1   
    52    26    27 1   
    53    26    29 1   
    54    27    28 2   
    55    28    50 1   
    56    29    51 1   
    57    29    52 1   
    58    29    53 1   
@<TRIPOS>SUBSTRUCTURE
     1 17P         1 TEMP              0 ****  ****    0 ROOT
