@<TRIPOS>MOLECULE
17P
   54    58     1     0     0
SMALL
bcc


@<TRIPOS>ATOM
      1 C            0.0000     0.0000     0.0000 cp         1 17P      -0.058000
      2 C1           1.4040     0.0000     0.0000 ca         1 17P      -0.228200
      3 N            1.8380     0.0000     1.3160 na         1 17P       0.413700
      4 C2           0.7670     0.0000     2.1710 ca         1 17P      -0.042200
      5 C3          -0.4130     0.0050     1.4130 cp         1 17P      -0.302300
      6 C4           0.6490    -0.0000     3.5770 ca         1 17P      -0.450900
      7 C5          -0.6240     0.0010     4.1450 ca         1 17P       0.525200
      8 N6          -1.7070     0.0000     3.3940 nb         1 17P      -0.661000
      9 C7          -1.6480     0.0060     2.0690 ca         1 17P       0.624200
     10 C8          -0.7000     0.0010    -1.2050 ca         1 17P      -0.061000
     11 C9          -0.0230     0.0020    -2.3910 ca         1 17P      -0.096000
     12 C10          1.3730     0.0020    -2.4030 ca         1 17P       0.075000
     13 C11          2.0850     0.0000    -1.2110 ca         1 17P      -0.095000
     14 C12          1.8490     0.0000     4.4290 c          1 17P       0.364700
     15 N13         -2.8180     0.0120     1.3310 nu         1 17P      -0.410900
     16 C14         -4.1150     0.0130     2.0120 c3         1 17P       0.107500
     17 C15         -5.1720     0.6280     1.0940 c3         1 17P      -0.036400
     18 C16         -6.5270     0.6300     1.8060 c3         1 17P      -0.016400
     19 C17         -6.9230    -0.8080     2.1490 c3         1 17P      -0.028400
     20 C18         -5.8660    -1.4230     3.0670 c3         1 17P      -0.016400
     21 C19         -4.5110    -1.4250     2.3560 c3         1 17P      -0.036400
     22 N20          1.7230    -0.0000     5.7710 nz         1 17P       0.207600
     23 O            2.9550    -0.0010     3.9230 o          1 17P      -0.525100
     24 C21          2.1010     0.0020    -3.6980 cc         1 17P      -0.299300
     25 C22          1.5360     0.0020    -4.9400 cd         1 17P      -0.228300
     26 N23          2.5380     0.0020    -5.8430 na         1 17P       0.514400
     27 N24          3.7530     0.0030    -5.1490 nd         1 17P      -0.634800
     28 C25          3.4990     0.0080    -3.8660 cc         1 17P       0.410200
     29 C26          2.3810     0.0020    -7.2990 c3         1 17P       0.016600
     30 HN           2.8330    -0.0020     1.4240 hn         1 17P       0.143700
     31 H5          -0.7250    -0.0040     5.2240 h4         1 17P      -0.055900
     32 H8          -1.7840     0.0010    -1.2010 ha         1 17P       0.098000
     33 H9          -0.5720     0.0030    -3.3260 ha         1 17P       0.116000
     34 H11          3.1680    -0.0000    -1.2240 ha         1 17P       0.118000
     35 HN13        -2.7780     0.0400     0.3310 hn         1 17P       0.312800
     36 H14         -4.0490     0.5950     2.9240 h1         1 17P       0.062700
     37 H15         -5.2440     0.0430     0.1850 hc         1 17P       0.021700
     38 H15A        -4.8910     1.6460     0.8530 hc         1 17P       0.021700
     39 H16         -7.2750     1.0640     1.1540 hc         1 17P       0.021200
     40 H16A        -6.4540     1.2100     2.7170 hc         1 17P       0.021200
     41 H17         -6.9910    -1.3900     1.2380 hc         1 17P       0.022200
     42 H17A        -7.8810    -0.8060     2.6540 hc         1 17P       0.022200
     43 H18         -6.1470    -2.4410     3.3080 hc         1 17P       0.021200
     44 H18A        -5.7940    -0.8380     3.9760 hc         1 17P       0.021200
     45 H19         -4.5850    -2.0050     1.4440 hc         1 17P       0.021700
     46 H19A        -3.7630    -1.8590     3.0070 hc         1 17P       0.021700
     47 HN20         1.2220     0.8170     6.0590 hn         1 17P       0.239800
     48 HN2A         2.6320     0.0010     6.1910 hn         1 17P       0.239800
     49 H22          0.4750     0.0020    -5.1610 h4         1 17P       0.150000
     50 H25          4.2360     0.0090    -3.0720 h4         1 17P       0.005100
     51 H26          1.8400     0.8900    -7.6050 h1         1 17P       0.028367
     52 H26A         1.8280    -0.8790    -7.6030 h1         1 17P       0.028367
     53 H26B         3.3580    -0.0050    -7.7680 h1         1 17P       0.028367
     54 H203         1.2250    -0.8190     6.0590 hn         1 17P       0.239800
@<TRIPOS>BOND
     1     1     2 ar  
     2     1     5 1   
     3     1    10 ar  
     4     2     3 1   
     5     2    13 ar  
     6     3     4 1   
     7     3    30 1   
     8     4     5 ar  
     9     4     6 ar  
    10     5     9 ar  
    11     6     7 ar  
    12     6    14 1   
    13     7     8 ar  
    14     7    31 1   
    15     8     9 ar  
    16     9    15 1   
    17    10    11 ar  
    18    10    32 1   
    19    11    12 ar  
    20    11    33 1   
    21    12    13 ar  
    22    12    24 1   
    23    13    34 1   
    24    14    22 1   
    25    14    23 2   
    26    15    16 1   
    27    15    35 1   
    28    16    17 1   
    29    16    21 1   
    30    16    36 1   
    31    17    18 1   
    32    17    37 1   
    33    17    38 1   
    34    18    19 1   
    35    18    39 1   
    36    18    40 1   
    37    19    20 1   
    38    19    41 1   
    39    19    42 1   
    40    20    21 1   
    41    20    43 1   
    42    20    44 1   
    43    21    45 1   
    44    21    46 1   
    45    22    47 1   
    46    22    48 1   
    47    22    54 1   
    48    24    25 2   
    49    24    28 1   
    50    25    26 1   
    51    25    49 1   
    52    26    27 1   
    53    26    29 1   
    54    27    28 2   
    55    28    50 1   
    56    29    51 1   
    57    29    52 1   
    58    29    53 1   
@<TRIPOS>SUBSTRUCTURE
     1 17P         1 TEMP              0 ****  ****    0 ROOT
