@<TRIPOS>MOLECULE
molecule
   54    58     1     0     0
SMALL
bcc


@<TRIPOS>ATOM
      1 C            0.0000     0.0000     0.0000 cp         1 17P      -0.078000
      2 C1           1.4040     0.0000     0.0000 ca         1 17P      -0.034200
      3 N            1.8380     0.0000     1.3160 na         1 17P      -0.145300
      4 C2           0.7670     0.0000     2.1710 ca         1 17P       0.139800
      5 C3          -0.4130     0.0050     1.4130 cp         1 17P      -0.286300
      6 C4           0.6490    -0.0000     3.5770 ca         1 17P      -0.433900
      7 C5          -0.6240     0.0010     4.1450 ca         1 17P       0.531200
      8 N6          -1.7070     0.0000     3.3940 nb         1 17P      -0.761000
      9 C7          -1.6480     0.0060     2.0690 ca         1 17P       0.803200
     10 C8          -0.7000     0.0010    -1.2050 ca         1 17P      -0.083000
     11 C9          -0.0230     0.0020    -2.3910 ca         1 17P      -0.130000
     12 C10          1.3730     0.0020    -2.4030 ca         1 17P       0.068000
     13 C11          2.0850     0.0000    -1.2110 ca         1 17P      -0.138000
     14 C12          1.8490     0.0000     4.4290 c          1 17P       0.513700
     15 N13         -2.8180     0.0120     1.3310 nu         1 17P      -0.849900
     16 C14         -4.1150     0.0130     2.0120 c3         1 17P       0.225500
     17 C15         -5.1720     0.6280     1.0940 c3         1 17P      -0.093400
     18 C16         -6.5270     0.6300     1.8060 c3         1 17P      -0.075900
     19 C17         -6.9230    -0.8080     2.1490 c3         1 17P      -0.084400
     20 C18         -5.8660    -1.4230     3.0670 c3         1 17P      -0.075900
     21 C19         -4.5110    -1.4250     2.3560 c3         1 17P      -0.093400
     22 N20          1.7230    -0.0000     5.7710 nz         1 17P      -0.674400
     23 O            2.9550    -0.0010     3.9230 o          1 17P      -0.483100
     24 C21          2.1010     0.0020    -3.6980 cc         1 17P      -0.292300
     25 C22          1.5360     0.0020    -4.9400 cd         1 17P      -0.082300
     26 N23          2.5380     0.0020    -5.8430 na         1 17P       0.082400
     27 N24          3.7530     0.0030    -5.1490 nd         1 17P      -0.494800
     28 C25          3.4990     0.0080    -3.8660 cc         1 17P       0.350200
     29 C26          2.3810     0.0020    -7.2990 c3         1 17P       0.057600
     30 HN           2.8330    -0.0020     1.4240 hn         1 17P       0.327700
     31 H5          -0.7250    -0.0040     5.2240 h4         1 17P      -0.004900
     32 H8          -1.7840     0.0010    -1.2010 ha         1 17P       0.124000
     33 H9          -0.5720     0.0030    -3.3260 ha         1 17P       0.142000
     34 H11          3.1680    -0.0000    -1.2240 ha         1 17P       0.142000
     35 HN13        -2.7780     0.0400     0.3310 hn         1 17P       0.465800
     36 H14         -4.0490     0.5950     2.9240 h1         1 17P       0.083700
     37 H15         -5.2440     0.0430     0.1850 hc         1 17P       0.050200
     38 H15A        -4.8910     1.6460     0.8530 hc         1 17P       0.050200
     39 H16         -7.2750     1.0640     1.1540 hc         1 17P       0.050700
     40 H16A        -6.4540     1.2100     2.7170 hc         1 17P       0.050700
     41 H17         -6.9910    -1.3900     1.2380 hc         1 17P       0.051200
     42 H17A        -7.8810    -0.8060     2.6540 hc         1 17P       0.051200
     43 H18         -6.1470    -2.4410     3.3080 hc         1 17P       0.050700
     44 H18A        -5.7940    -0.8380     3.9760 hc         1 17P       0.050700
     45 H19         -4.5850    -2.0050     1.4440 hc         1 17P       0.050200
     46 H19A        -3.7630    -1.8590     3.0070 hc         1 17P       0.050200
     47 HN20         1.2220     0.8170     6.0590 hn         1 17P       0.472133
     48 HN2A         2.6320     0.0010     6.1910 hn         1 17P       0.472133
     49 H22          0.4750     0.0020    -5.1610 h4         1 17P       0.175000
     50 H25          4.2360     0.0090    -3.0720 h4         1 17P       0.049100
     51 H26          1.8400     0.8900    -7.6050 h1         1 17P       0.063367
     52 H26A         1.8280    -0.8790    -7.6030 h1         1 17P       0.063367
     53 H26B         3.3580    -0.0050    -7.7680 h1         1 17P       0.063367
     54 H203         1.2250    -0.8190     6.0590 hn         1 17P       0.472133
@<TRIPOS>BOND
     1     2     1 ar
     2     5     1 1
     3     1    10 ar
     4     3     2 1
     5    13     2 ar
     6     3     4 1
     7     3    30 1
     8     6     4 ar
     9     4     5 ar
    10     5     9 ar
    11    14     6 1
    12     6     7 ar
    13     7     8 ar
    14     7    31 1
    15     8     9 ar
    16     9    15 1
    17    10    11 ar
    18    10    32 1
    19    12    11 ar
    20    11    33 1
    21    13    12 ar
    22    12    24 1
    23    13    34 1
    24    22    14 1
    25    14    23 2
    26    15    16 1
    27    15    35 1
    28    21    16 1
    29    16    17 1
    30    16    36 1
    31    17    18 1
    32    17    37 1
    33    17    38 1
    34    19    18 1
    35    18    39 1
    36    18    40 1
    37    20    19 1
    38    19    41 1
    39    19    42 1
    40    21    20 1
    41    20    43 1
    42    20    44 1
    43    21    45 1
    44    21    46 1
    45    22    47 1
    46    22    48 1
    47    28    24 1
    48    24    25 2
    49    26    25 1
    50    25    49 1
    51    27    26 1
    52    26    29 1
    53    28    27 2
    54    28    50 1
    55    29    51 1
    56    29    52 1
    57    29    53 1
    58    54    22 1
@<TRIPOS>SUBSTRUCTURE
     1 17P         1 TEMP              0 ****  ****    0 ROOT
