@<TRIPOS>MOLECULE
molecule
   60    60     1     0     0
SMALL
bcc


@<TRIPOS>ATOM
      1 C15          0.0000     0.0000     0.0000 c3         1 17Q       0.150600
      2 N            1.4700     0.0000     0.0000 n3         1 17Q      -0.732600
      3 C14          1.9950     0.0000     1.3720 c3         1 17Q       0.150600
      4 C13          1.9960    -1.1380    -0.7660 c3         1 17Q       0.161800
      5 C12          1.6320    -0.9700    -2.2410 c3         1 17Q      -0.079400
      6 C11          2.1800    -2.1550    -3.0390 c3         1 17Q      -0.082400
      7 C10          1.8170    -1.9870    -4.5160 c3         1 17Q      -0.081400
      8 C9           2.3650    -3.1720    -5.3140 c3         1 17Q       0.126400
      9 O            2.0250    -3.0160    -6.6930 os         1 17Q      -0.419600
     10 C8           2.4940    -4.0750    -7.5310 c3         1 17Q       0.140100
     11 C16          2.7680    -3.5320    -8.9350 c3         1 17Q      -0.090900
     12 C17          2.6130    -2.0100    -8.9310 c3         1 17Q      -0.097400
     13 C18          1.6370    -1.5950   -10.0340 c3         1 17Q      -0.079400
     14 C19          0.5330    -0.7200    -9.4360 c3         1 17Q      -0.083400
     15 C1          -0.8330    -1.2980    -9.8080 c3         1 17Q      -0.082400
     16 C7           1.4300    -5.1720    -7.6090 c3         1 17Q      -0.090900
     17 C6           0.2940    -4.8510    -6.6350 c3         1 17Q      -0.097400
     18 C5          -1.0400    -4.8760    -7.3820 c3         1 17Q      -0.079400
     19 C4          -1.7860    -3.5610    -7.1390 c3         1 17Q      -0.083400
     20 C3          -2.1720    -2.9390    -8.4810 c3         1 17Q      -0.082400
     21 C2          -1.6660    -1.4960    -8.5390 c3         1 17Q      -0.083400
     22 H151        -0.3610    -1.0210    -0.0220 h1         1 17Q       0.031533
     23 H152        -0.3610     0.4910     0.8950 h1         1 17Q       0.031533
     24 H153        -0.3610     0.5300    -0.8730 h1         1 17Q       0.031533
     25 H141         3.0760     0.0650     1.3450 h1         1 17Q       0.031533
     26 H142         1.7010    -0.9150     1.8720 h1         1 17Q       0.031533
     27 H143         1.5960     0.8500     1.9120 h1         1 17Q       0.031533
     28 H131         3.0740    -1.1750    -0.6620 h1         1 17Q       0.032700
     29 H132         1.5640    -2.0570    -0.3890 h1         1 17Q       0.032700
     30 H121         2.0630    -0.0510    -2.6180 hc         1 17Q       0.051200
     31 H122         0.5540    -0.9330    -2.3460 hc         1 17Q       0.051200
     32 H111         3.2580    -2.1930    -2.9350 hc         1 17Q       0.040700
     33 H112         1.7490    -3.0750    -2.6630 hc         1 17Q       0.040700
     34 H101         2.2480    -1.0680    -4.8920 hc         1 17Q       0.053200
     35 H102         0.7390    -1.9500    -4.6210 hc         1 17Q       0.053200
     36 H91C         3.4430    -3.2090    -5.2100 h1         1 17Q       0.026700
     37 H92C         1.9340    -4.0920    -4.9380 h1         1 17Q       0.026700
     38 H8           3.4070    -4.4860    -7.1170 h1         1 17Q       0.034700
     39 H161         2.0640    -3.9650    -9.6340 hc         1 17Q       0.044700
     40 H162         3.7770    -3.7910    -9.2320 hc         1 17Q       0.044700
     41 H71C         1.0370    -5.2240    -8.6170 hc         1 17Q       0.044700
     42 H72C         1.8730    -6.1250    -7.3450 hc         1 17Q       0.044700
     43 H171         3.5770    -1.5480    -9.1090 hc         1 17Q       0.058200
     44 H172         2.2300    -1.6880    -7.9700 hc         1 17Q       0.058200
     45 H181         1.1970    -2.4790   -10.4790 hc         1 17Q       0.038200
     46 H182         2.1690    -1.0350   -10.7950 hc         1 17Q       0.038200
     47 H191         0.6180     0.2860    -9.8280 hc         1 17Q       0.043450
     48 H192         0.6350    -0.6980    -8.3580 hc         1 17Q       0.043450
     49 H11C        -1.3460    -0.6140   -10.4730 hc         1 17Q       0.039700
     50 H12C        -0.6990    -2.2520   -10.3040 hc         1 17Q       0.039700
     51 H21C        -1.0520    -1.2940    -7.6700 hc         1 17Q       0.042700
     52 H22C        -2.5100    -0.8170    -8.5520 hc         1 17Q       0.042700
     53 H61C         0.4510    -3.8680    -6.2080 hc         1 17Q       0.058200
     54 H62C         0.2780    -5.5900    -5.8420 hc         1 17Q       0.058200
     55 H51C        -0.8580    -4.9970    -8.4430 hc         1 17Q       0.038200
     56 H52C        -1.6400    -5.7030    -7.0220 hc         1 17Q       0.038200
     57 H41C        -1.1450    -2.8780    -6.5950 hc         1 17Q       0.043450
     58 H42C        -2.6800    -3.7550    -6.5590 hc         1 17Q       0.043450
     59 H31C        -3.2510    -2.9470    -8.5860 hc         1 17Q       0.039700
     60 H32C        -1.7270    -3.5110    -9.2860 hc         1 17Q       0.039700
@<TRIPOS>BOND
     1     1     2 1   
     2     2     3 1   
     3     2     4 1   
     4     4     5 1   
     5     5     6 1   
     6     6     7 1   
     7     7     8 1   
     8     8     9 1   
     9     9    10 1   
    10    10    11 1   
    11    10    16 1   
    12    11    12 1   
    13    12    13 1   
    14    13    14 1   
    15    14    15 1   
    16    15    21 1   
    17    16    17 1   
    18    17    18 1   
    19    18    19 1   
    20    19    20 1   
    21    20    21 1   
    22     1    22 1   
    23     1    23 1   
    24     1    24 1   
    25     3    25 1   
    26     3    26 1   
    27     3    27 1   
    28     4    28 1   
    29     4    29 1   
    30     5    30 1   
    31     5    31 1   
    32     6    32 1   
    33     6    33 1   
    34     7    34 1   
    35     7    35 1   
    36     8    36 1   
    37     8    37 1   
    38    10    38 1   
    39    11    39 1   
    40    11    40 1   
    41    16    41 1   
    42    16    42 1   
    43    12    43 1   
    44    12    44 1   
    45    13    45 1   
    46    13    46 1   
    47    14    47 1   
    48    14    48 1   
    49    15    49 1   
    50    15    50 1   
    51    21    51 1   
    52    21    52 1   
    53    17    53 1   
    54    17    54 1   
    55    18    55 1   
    56    18    56 1   
    57    19    57 1   
    58    19    58 1   
    59    20    59 1   
    60    20    60 1   
@<TRIPOS>SUBSTRUCTURE
     1 17Q         1 TEMP              0 ****  ****    0 ROOT
