@<TRIPOS>MOLECULE
17Q
   61    61     1     0     0
SMALL
bcc


@<TRIPOS>ATOM
      1 C15          3.1960     0.2060     0.4340 c3         1 17Q       0.087600
      2 N            3.4580     1.0820    -0.7350 nx         1 17Q      -0.691400
      3 C14          4.2880     2.2470    -0.3360 c3         1 17Q       0.087600
      4 C13          2.1800     1.5370    -1.3750 c3         1 17Q       0.109800
      5 C12          1.4950     0.4720    -2.2230 c3         1 17Q      -0.105400
      6 C11          2.3410    -0.0140    -3.3810 c3         1 17Q      -0.101400
      7 C10          3.1140    -1.2850    -3.0750 c3         1 17Q      -0.097400
      8 C9           4.5500    -1.2200    -3.5700 c3         1 17Q       0.126400
      9 O            5.2410    -0.2940    -2.7290 os         1 17Q      -0.508600
     10 C8           6.5170     0.1250    -3.2570 c3         1 17Q       0.141100
     11 C16          7.3570     0.4520    -2.0230 c3         1 17Q      -0.085900
     12 C17          8.7590     0.9210    -2.3430 c3         1 17Q      -0.086400
     13 C18          9.6090    -0.1550    -2.9900 c3         1 17Q      -0.079400
     14 C19         10.8510     0.4130    -3.6500 c3         1 17Q      -0.079400
     15 C1          11.2270    -0.3140    -4.9290 c3         1 17Q      -0.079900
     16 C7           6.3010     1.3070    -4.2000 c3         1 17Q      -0.085900
     17 C6           7.2940     1.3300    -5.3430 c3         1 17Q      -0.086400
     18 C5           7.0020     0.2970    -6.4110 c3         1 17Q      -0.079400
     19 C4           8.2120     0.0150    -7.2820 c3         1 17Q      -0.079400
     20 C3           9.3170    -0.7250    -6.5500 c3         1 17Q      -0.079900
     21 C2          10.4720     0.1760    -6.1520 c3         1 17Q      -0.081400
     22 H151         2.6680     0.7880     1.2350 hx         1 17Q       0.100200
     23 H152         2.5550    -0.6590     0.1140 hx         1 17Q       0.100200
     24 H153         4.1730    -0.1810     0.8320 hx         1 17Q       0.100200
     25 H141         3.7060     2.9070     0.3590 hx         1 17Q       0.100200
     26 H142         4.5820     2.8230    -1.2540 hx         1 17Q       0.100200
     27 H143         5.2160     1.8780     0.1800 hx         1 17Q       0.100200
     28 H131         2.4290     2.4230    -2.0290 hx         1 17Q       0.097700
     29 H132         1.4850     1.8790    -0.5560 hx         1 17Q       0.097700
     30 H121         1.1650    -0.3910    -1.5860 hc         1 17Q       0.081700
     31 H122         0.5600     0.9560    -2.6230 hc         1 17Q       0.081700
     32 H111         1.6650    -0.2060    -4.2590 hc         1 17Q       0.066700
     33 H112         3.0510     0.7970    -3.7000 hc         1 17Q       0.066700
     34 H101         3.1160    -1.5000    -1.9740 hc         1 17Q       0.057200
     35 H102         2.6180    -2.1590    -3.5750 hc         1 17Q       0.057200
     36 H91C         4.5950    -0.8830    -4.6390 h1         1 17Q       0.055700
     37 H92C         5.0450    -2.2230    -3.4760 h1         1 17Q       0.055700
     38 H8           6.9790    -0.7380    -3.8150 h1         1 17Q       0.071700
     39 H161         7.4060    -0.4680    -1.3810 hc         1 17Q       0.037200
     40 H162         6.8280     1.2470    -1.4320 hc         1 17Q       0.037200
     41 H71C         6.3870     2.2620    -3.6190 hc         1 17Q       0.037200
     42 H72C         5.2570     1.2610    -4.6120 hc         1 17Q       0.037200
     43 H171         8.7030     1.8240    -3.0080 hc         1 17Q       0.054950
     44 H172         9.2500     1.2510    -1.3890 hc         1 17Q       0.054950
     45 H181         9.9060    -0.9090    -2.2140 hc         1 17Q       0.038950
     46 H182         9.0000    -0.7060    -3.7530 hc         1 17Q       0.038950
     47 H191        10.7080     1.5040    -3.8740 hc         1 17Q       0.046200
     48 H192        11.7090     0.3430    -2.9290 hc         1 17Q       0.046200
     49 H11C        11.0760    -1.4170    -4.7970 hc         1 17Q       0.043450
     50 H12C        12.3250    -0.1550    -5.1050 hc         1 17Q       0.043450
     51 H21C        10.1050     1.2220    -5.9760 hc         1 17Q       0.043700
     52 H22C        11.1850     0.2370    -7.0180 hc         1 17Q       0.043700
     53 H61C         7.2860     2.3510    -5.8090 hc         1 17Q       0.054950
     54 H62C         8.3280     1.1590    -4.9370 hc         1 17Q       0.054950
     55 H51C         6.6560    -0.6600    -5.9370 hc         1 17Q       0.038950
     56 H52C         6.1610     0.6610    -7.0600 hc         1 17Q       0.038950
     57 H41C         7.8740    -0.6060    -8.1550 hc         1 17Q       0.046200
     58 H42C         8.6020     0.9800    -7.7000 hc         1 17Q       0.046200
     59 H31C         9.7140    -1.5400    -7.2130 hc         1 17Q       0.043450
     60 H32C         8.8900    -1.2350    -5.6470 hc         1 17Q       0.043450
     61 HN1          3.9880     0.5320    -1.4430 hn         1 17Q       0.494800
@<TRIPOS>BOND
     1     1     2 1   
     2     1    22 1   
     3     1    23 1   
     4     1    24 1   
     5     2     3 1   
     6     2     4 1   
     7     2    61 1   
     8     3    25 1   
     9     3    26 1   
    10     3    27 1   
    11     4     5 1   
    12     4    28 1   
    13     4    29 1   
    14     5     6 1   
    15     5    30 1   
    16     5    31 1   
    17     6     7 1   
    18     6    32 1   
    19     6    33 1   
    20     7     8 1   
    21     7    34 1   
    22     7    35 1   
    23     8     9 1   
    24     8    36 1   
    25     8    37 1   
    26     9    10 1   
    27    10    11 1   
    28    10    16 1   
    29    10    38 1   
    30    11    12 1   
    31    11    39 1   
    32    11    40 1   
    33    12    13 1   
    34    12    43 1   
    35    12    44 1   
    36    13    14 1   
    37    13    45 1   
    38    13    46 1   
    39    14    15 1   
    40    14    47 1   
    41    14    48 1   
    42    15    21 1   
    43    15    49 1   
    44    15    50 1   
    45    16    17 1   
    46    16    41 1   
    47    16    42 1   
    48    17    18 1   
    49    17    53 1   
    50    17    54 1   
    51    18    19 1   
    52    18    55 1   
    53    18    56 1   
    54    19    20 1   
    55    19    57 1   
    56    19    58 1   
    57    20    21 1   
    58    20    59 1   
    59    20    60 1   
    60    21    51 1   
    61    21    52 1   
@<TRIPOS>SUBSTRUCTURE
     1 17Q         1 TEMP              0 ****  ****    0 ROOT
