@<TRIPOS>MOLECULE
17R
   51    54     1     0     0
SMALL
bcc


@<TRIPOS>ATOM
      1 C1           0.0000     0.0000     0.0000 c3         1 17R      -0.028100
      2 C2           1.5300     0.0000     0.0000 c3         1 17R       0.207500
      3 C3           2.0450     0.0000     1.4430 c3         1 17R       0.138800
      4 N1           1.6750     1.2650     2.0920 nh         1 17R      -0.408000
      5 C4           2.3140     2.4110     1.4310 c3         1 17R       0.137800
      6 C5           1.8110     2.5090    -0.0130 c3         1 17R       0.228800
      7 N2           2.0240     1.2110    -0.6720 n3         1 17R      -0.531500
      8 S1           2.7990     1.1170    -2.1320 sy         1 17R       1.053200
      9 O1           3.6040     2.2850    -2.2360 o          1 17R      -0.583300
     10 O2           3.3250    -0.2000    -2.2230 o          1 17R      -0.583300
     11 C6           1.5680     1.2490    -3.3860 ca         1 17R      -0.145500
     12 C7           1.2190     2.4900    -3.8830 ca         1 17R       0.006000
     13 C8           0.2530     2.5980    -4.8670 ca         1 17R      -0.110000
     14 C9          -0.3660     1.4640    -5.3560 ca         1 17R      -0.067000
     15 C10         -0.0180     0.2160    -4.8580 ca         1 17R      -0.169200
     16 C11          0.9560     0.1100    -3.8750 ca         1 17R       0.021000
     17 N3          -0.6440    -0.9370    -5.3530 na         1 17R       0.475500
     18 C12         -1.5290    -1.0040    -6.3660 cc         1 17R       0.285400
     19 N4          -1.8780    -2.2560    -6.5170 nd         1 17R      -0.692000
     20 C13         -1.2420    -3.0140    -5.6240 cd         1 17R       0.615900
     21 N5          -0.4710    -2.2520    -4.8920 nc         1 17R      -0.695800
     22 C14          1.9820     1.2380     3.4550 ca         1 17R       0.057600
     23 C15          3.2940     1.0480     3.8690 ca         1 17R      -0.115000
     24 C16          3.5960     1.0220     5.2170 ca         1 17R      -0.089000
     25 C17          2.5910     1.1850     6.1560 ca         1 17R       0.100900
     26 C18          1.2820     1.3740     5.7450 ca         1 17R      -0.078000
     27 C19          0.9770     1.4070     4.3990 ca         1 17R      -0.165300
     28 C20         -0.4480     1.6190     3.9530 c3         1 17R       0.655200
     29 F1          -1.2700     1.7630     5.0750 f          1 17R      -0.206967
     30 F2          -0.5230     2.7750     3.1690 f          1 17R      -0.206967
     31 F3          -0.8710     0.5170     3.2020 f          1 17R      -0.206967
     32 F4           2.8880     1.1580     7.4730 f          1 17R      -0.120900
     33 H1          -0.3610    -0.4480     0.9180 hc         1 17R       0.017033
     34 H1A         -0.3610    -0.5710    -0.8470 hc         1 17R       0.017033
     35 H1B         -0.3610     1.0190    -0.0710 hc         1 17R       0.017033
     36 H2           1.9000    -0.8780    -0.5170 h1         1 17R       0.061700
     37 H3           1.6000    -0.8260     1.9840 h1         1 17R       0.024200
     38 H3A          3.1240    -0.1010     1.4410 h1         1 17R       0.024200
     39 H4           3.3890     2.2720     1.4290 h1         1 17R       0.022700
     40 H4A          2.0630     3.3200     1.9630 h1         1 17R       0.022700
     41 H5           0.7540     2.7470    -0.0130 h1         1 17R       0.033200
     42 H5A          2.3640     3.2780    -0.5390 h1         1 17R       0.033200
     43 H7           1.7030     3.3810    -3.5010 ha         1 17R       0.126000
     44 H8          -0.0190     3.5730    -5.2540 ha         1 17R       0.115000
     45 H9          -1.1250     1.5490    -6.1240 ha         1 17R       0.113000
     46 H11          1.2300    -0.8630    -3.4850 ha         1 17R       0.153000
     47 H12         -1.8880    -0.1680    -6.9540 h5         1 17R       0.028100
     48 H13         -1.3430    -4.0880    -5.5240 h5         1 17R       0.026100
     49 H15          4.0800     0.9210     3.1350 ha         1 17R       0.125000
     50 H16          4.6190     0.8740     5.5400 ha         1 17R       0.123000
     51 H18          0.4970     1.5030     6.4810 ha         1 17R       0.139000
@<TRIPOS>BOND
     1     1     2 1   
     2     1    33 1   
     3     1    34 1   
     4     1    35 1   
     5     2     3 1   
     6     2     7 1   
     7     2    36 1   
     8     3     4 1   
     9     3    37 1   
    10     3    38 1   
    11     4     5 1   
    12     4    22 1   
    13     5     6 1   
    14     5    39 1   
    15     5    40 1   
    16     6     7 1   
    17     6    41 1   
    18     6    42 1   
    19     7     8 1   
    20     8     9 2   
    21     8    10 2   
    22     8    11 1   
    23    11    12 ar  
    24    11    16 ar  
    25    12    13 ar  
    26    12    43 1   
    27    13    14 ar  
    28    13    44 1   
    29    14    15 ar  
    30    14    45 1   
    31    15    16 ar  
    32    15    17 1   
    33    16    46 1   
    34    17    18 1   
    35    17    21 1   
    36    18    19 2   
    37    18    47 1   
    38    19    20 1   
    39    20    21 2   
    40    20    48 1   
    41    22    23 ar  
    42    22    27 ar  
    43    23    24 ar  
    44    23    49 1   
    45    24    25 ar  
    46    24    50 1   
    47    25    26 ar  
    48    25    32 1   
    49    26    27 ar  
    50    26    51 1   
    51    27    28 1   
    52    28    29 1   
    53    28    30 1   
    54    28    31 1   
@<TRIPOS>SUBSTRUCTURE
     1 17R         1 TEMP              0 ****  ****    0 ROOT
