@<TRIPOS>MOLECULE
17R
   51    54     1     0     0
SMALL
bcc


@<TRIPOS>ATOM
      1 C1           0.7140    -1.0650     0.4930 c3         1 17R      -0.112100
      2 C2           1.9050    -0.1860     0.1120 c3         1 17R       0.237500
      3 C3           2.7500     0.1090     1.3840 c3         1 17R       0.168800
      4 N1           2.1380     1.1170     2.2390 nh         1 17R      -0.632000
      5 C4           1.7950     2.3420     1.5250 c3         1 17R       0.163800
      6 C5           0.9690     2.0570     0.2520 c3         1 17R       0.221800
      7 N2           1.5400     1.0330    -0.5850 n3         1 17R      -0.815500
      8 S1           1.7450     1.2260    -2.1840 sy         1 17R       1.505200
      9 O1           1.9250     2.5960    -2.4820 o          1 17R      -0.649800
     10 O2           2.7360     0.3350    -2.6510 o          1 17R      -0.649800
     11 C6           0.2530     0.7510    -2.8430 ca         1 17R      -0.351500
     12 C7          -0.0250    -0.5990    -3.0790 ca         1 17R      -0.023000
     13 C8          -1.2380    -0.9830    -3.6460 ca         1 17R      -0.141000
     14 C9          -2.1890    -0.0290    -3.9960 ca         1 17R      -0.059000
     15 C10         -1.9190     1.3390    -3.7750 ca         1 17R       0.002800
     16 C11         -0.6970     1.7150    -3.1870 ca         1 17R      -0.043000
     17 N3          -2.8630     2.3360    -4.1390 na         1 17R       0.001500
     18 C12         -2.5640     3.6840    -4.4680 cc         1 17R       0.421400
     19 N4          -3.7070     4.3290    -4.7630 nd         1 17R      -0.677000
     20 C13         -4.6990     3.3390    -4.6070 cd         1 17R       0.512900
     21 N5          -4.1960     2.1330    -4.2320 nc         1 17R      -0.513800
     22 C14          2.8690     1.3600     3.4460 ca         1 17R       0.127600
     23 C15          4.2400     1.6940     3.4560 ca         1 17R      -0.137000
     24 C16          4.9230     1.8990     4.6470 ca         1 17R      -0.131000
     25 C17          4.2390     1.7790     5.8700 ca         1 17R       0.122900
     26 C18          2.8720     1.4540     5.8840 ca         1 17R      -0.124000
     27 C19          2.1970     1.2470     4.6830 ca         1 17R      -0.124300
     28 C20          0.7090     0.9000     4.7300 c3         1 17R       0.702200
     29 F1           0.3800    -0.3080     4.1700 f          1 17R      -0.234633
     30 F2           0.1850     0.8190     6.0000 f          1 17R      -0.234633
     31 F3          -0.1060     1.8120     4.1050 f          1 17R      -0.234633
     32 F4           4.8960     1.9770     7.0370 f          1 17R      -0.128900
     33 H1           0.0820    -1.2860    -0.4010 hc         1 17R       0.049033
     34 H1A          0.0810    -0.5700     1.2690 hc         1 17R       0.049033
     35 H1B          1.0950    -2.0290     0.9080 hc         1 17R       0.049033
     36 H2           2.5770    -0.7840    -0.5810 h1         1 17R       0.076700
     37 H3           3.7880     0.4070     1.0560 h1         1 17R       0.048200
     38 H3A          2.8280    -0.8440     1.9780 h1         1 17R       0.048200
     39 H4           1.1630     2.9710     2.2120 h1         1 17R       0.052700
     40 H4A          2.7150     2.9320     1.2440 h1         1 17R       0.052700
     41 H5          -0.0720     1.7500     0.5640 h1         1 17R       0.064200
     42 H5A          0.9030     3.0200    -0.3320 h1         1 17R       0.064200
     43 H7           0.7330    -1.3620    -2.8280 ha         1 17R       0.154000
     44 H8          -1.4480    -2.0490    -3.8260 ha         1 17R       0.150000
     45 H9          -3.1460    -0.3500    -4.4420 ha         1 17R       0.166000
     46 H11         -0.4620     2.7790    -3.0000 ha         1 17R       0.162000
     47 H12         -1.5480     4.0940    -4.4800 h5         1 17R       0.081100
     48 H13         -5.7640     3.5370    -4.7730 h5         1 17R       0.076100
     49 H15          4.7850     1.7970     2.5030 ha         1 17R       0.151000
     50 H16          5.9920     2.1580     4.6440 ha         1 17R       0.159000
     51 H18          2.3420     1.3640     6.8470 ha         1 17R       0.173000
@<TRIPOS>BOND
     1     1     2 1   
     2     1    33 1   
     3     1    34 1   
     4     1    35 1   
     5     2     3 1   
     6     2     7 1   
     7     2    36 1   
     8     3     4 1   
     9     3    37 1   
    10     3    38 1   
    11     4     5 1   
    12     4    22 1   
    13     5     6 1   
    14     5    39 1   
    15     5    40 1   
    16     6     7 1   
    17     6    41 1   
    18     6    42 1   
    19     7     8 1   
    20     8     9 2   
    21     8    10 2   
    22     8    11 1   
    23    11    12 ar  
    24    11    16 ar  
    25    12    13 ar  
    26    12    43 1   
    27    13    14 ar  
    28    13    44 1   
    29    14    15 ar  
    30    14    45 1   
    31    15    16 ar  
    32    15    17 1   
    33    16    46 1   
    34    17    18 1   
    35    17    21 1   
    36    18    19 2   
    37    18    47 1   
    38    19    20 1   
    39    20    21 2   
    40    20    48 1   
    41    22    23 ar  
    42    22    27 ar  
    43    23    24 ar  
    44    23    49 1   
    45    24    25 ar  
    46    24    50 1   
    47    25    26 ar  
    48    25    32 1   
    49    26    27 ar  
    50    26    51 1   
    51    27    28 1   
    52    28    29 1   
    53    28    30 1   
    54    28    31 1   
@<TRIPOS>SUBSTRUCTURE
     1 17R         1 TEMP              0 ****  ****    0 ROOT
