@<TRIPOS>MOLECULE
molecule
   51    54     1     0     0
SMALL
bcc


@<TRIPOS>ATOM
      1 C1           0.0000     0.0000     0.0000 c3         1 17R      -0.104100
      2 C2           1.5300     0.0000     0.0000 c3         1 17R       0.242500
      3 C3           2.0450     0.0000     1.4430 c3         1 17R       0.165800
      4 N1           1.6750     1.2650     2.0920 nh         1 17R      -0.621000
      5 C4           2.3140     2.4110     1.4310 c3         1 17R       0.161800
      6 C5           1.8110     2.5090    -0.0130 c3         1 17R       0.234800
      7 N2           2.0240     1.2110    -0.6720 n3         1 17R      -0.819500
      8 S1           2.7990     1.1170    -2.1320 sy         1 17R       1.422200
      9 O1           3.6040     2.2850    -2.2360 o          1 17R      -0.631300
     10 O2           3.3250    -0.2000    -2.2230 o          1 17R      -0.631300
     11 C6           1.5680     1.2490    -3.3860 ca         1 17R      -0.295500
     12 C7           1.2190     2.4900    -3.8830 ca         1 17R      -0.038000
     13 C8           0.2530     2.5980    -4.8670 ca         1 17R      -0.127000
     14 C9          -0.3660     1.4640    -5.3560 ca         1 17R      -0.104000
     15 C10         -0.0180     0.2160    -4.8580 ca         1 17R       0.009800
     16 C11          0.9560     0.1100    -3.8750 ca         1 17R      -0.023000
     17 N3          -0.6440    -0.9370    -5.3530 na         1 17R       0.011500
     18 C12         -1.5290    -1.0040    -6.3660 cc         1 17R       0.453400
     19 N4          -1.8780    -2.2560    -6.5170 nd         1 17R      -0.754000
     20 C13         -1.2420    -3.0140    -5.6240 cd         1 17R       0.576900
     21 N5          -0.4710    -2.2520    -4.8920 nc         1 17R      -0.543800
     22 C14          1.9820     1.2380     3.4550 ca         1 17R       0.114600
     23 C15          3.2940     1.0480     3.8690 ca         1 17R      -0.143000
     24 C16          3.5960     1.0220     5.2170 ca         1 17R      -0.133000
     25 C17          2.5910     1.1850     6.1560 ca         1 17R       0.128900
     26 C18          1.2820     1.3740     5.7450 ca         1 17R      -0.124000
     27 C19          0.9770     1.4070     4.3990 ca         1 17R      -0.136300
     28 C20         -0.4480     1.6190     3.9530 c3         1 17R       0.689200
     29 F1          -1.2700     1.7630     5.0750 f          1 17R      -0.220300
     30 F2          -0.5230     2.7750     3.1690 f          1 17R      -0.220300
     31 F3          -0.8710     0.5170     3.2020 f          1 17R      -0.220300
     32 F4           2.8880     1.1580     7.4730 f          1 17R      -0.131900
     33 H1          -0.3610    -0.4480     0.9180 hc         1 17R       0.048033
     34 H1A         -0.3610    -0.5710    -0.8470 hc         1 17R       0.048033
     35 H1B         -0.3610     1.0190    -0.0710 hc         1 17R       0.048033
     36 H2           1.9000    -0.8780    -0.5170 h1         1 17R       0.087700
     37 H3           1.6000    -0.8260     1.9840 h1         1 17R       0.049700
     38 H3A          3.1240    -0.1010     1.4410 h1         1 17R       0.049700
     39 H4           3.3890     2.2720     1.4290 h1         1 17R       0.050200
     40 H4A          2.0630     3.3200     1.9630 h1         1 17R       0.050200
     41 H5           0.7540     2.7470    -0.0130 h1         1 17R       0.066200
     42 H5A          2.3640     3.2780    -0.5390 h1         1 17R       0.066200
     43 H7           1.7030     3.3810    -3.5010 ha         1 17R       0.154000
     44 H8          -0.0190     3.5730    -5.2540 ha         1 17R       0.145000
     45 H9          -1.1250     1.5490    -6.1240 ha         1 17R       0.138000
     46 H11          1.2300    -0.8630    -3.4850 ha         1 17R       0.179000
     47 H12         -1.8880    -0.1680    -6.9540 h5         1 17R       0.073100
     48 H13         -1.3430    -4.0880    -5.5240 h5         1 17R       0.084100
     49 H15          4.0800     0.9210     3.1350 ha         1 17R       0.150000
     50 H16          4.6190     0.8740     5.5400 ha         1 17R       0.153000
     51 H18          0.4970     1.5030     6.4810 ha         1 17R       0.168000
@<TRIPOS>BOND
     1     1     2 1
     2     2     3 1
     3     2     7 1
     4     3     4 1
     5     4     5 1
     6     4    22 1
     7     5     6 1
     8     6     7 1
     9     7     8 1
    10     8     9 2
    11     8    10 2
    12     8    11 1
    13    11    12 ar
    14    11    16 ar
    15    12    13 ar
    16    13    14 ar
    17    14    15 ar
    18    15    16 ar
    19    15    17 1
    20    17    18 1
    21    17    21 1
    22    18    19 2
    23    19    20 1
    24    20    21 2
    25    22    23 ar
    26    22    27 ar
    27    23    24 ar
    28    24    25 ar
    29    25    26 ar
    30    25    32 1
    31    26    27 ar
    32    27    28 1
    33    28    29 1
    34    28    30 1
    35    28    31 1
    36     1    33 1
    37     1    34 1
    38     1    35 1
    39     2    36 1
    40     3    37 1
    41     3    38 1
    42     5    39 1
    43     5    40 1
    44     6    41 1
    45     6    42 1
    46    12    43 1
    47    13    44 1
    48    14    45 1
    49    16    46 1
    50    18    47 1
    51    20    48 1
    52    23    49 1
    53    24    50 1
    54    26    51 1
@<TRIPOS>SUBSTRUCTURE
     1 17R         1 TEMP              0 ****  ****    0 ROOT
