@<TRIPOS>MOLECULE
17S
   48    49     1     0     0
SMALL
bcc


@<TRIPOS>ATOM
      1 C1           0.8620    -0.4280    -0.4820 c3         1 17S       0.320300
      2 N1           1.1040    -0.5320    -1.9730 ny         1 17S      -0.630800
      3 S1           0.0380    -2.3600    -3.5250 s          1 17S       0.280600
      4 C2           2.1500    -0.0160     0.2800 c3         1 17S       0.120100
      5 N2          -1.3000    -0.1840    -2.6580 ny         1 17S      -0.269900
      6 O2           3.0800    -1.0460     0.0420 oh         1 17S      -0.624800
      7 C3           1.7640     0.1270     1.7660 c3         1 17S       0.114100
      8 N3          -2.4470    -0.7620    -3.1970 n2         1 17S      -0.618400
      9 O3           2.9320     0.5990     2.3990 oh         1 17S      -0.585800
     10 C4           0.6050     1.1390     1.9300 c3         1 17S       0.085100
     11 O4           0.2010     1.0290     3.2790 oh         1 17S      -0.574800
     12 C5          -0.5700     0.7390     1.0220 c3         1 17S       0.116100
     13 O5          -0.1010     0.5990    -0.3400 os         1 17S      -0.466600
     14 C6          -1.6710     1.7960     0.8890 c3         1 17S       0.134400
     15 O6          -2.4520     1.3950    -0.2300 oh         1 17S      -0.652800
     16 C7          -0.0640    -1.0640    -2.7590 cs         1 17S      -0.027600
     17 O7          -7.6050    -2.3960    -6.6440 os         1 17S      -0.279900
     18 C8          -2.8670    -0.4500    -4.4220 ce         1 17S       0.589800
     19 C9          -4.0770    -0.9580    -4.9770 ca         1 17S      -0.290900
     20 C10         -4.9260    -1.8630    -4.2850 ca         1 17S       0.004000
     21 C11         -6.0880    -2.3230    -4.8630 ca         1 17S      -0.210500
     22 C12         -6.4460    -1.8870    -6.1680 ca         1 17S       0.259100
     23 C13         -5.6120    -0.9850    -6.8690 ca         1 17S      -0.210500
     24 C14         -4.4510    -0.5310    -6.2790 ca         1 17S       0.004000
     25 C15         -8.0290    -1.9940    -7.9540 c3         1 17S       0.099700
     26 H1           0.4740    -1.4270    -0.1190 hx         1 17S       0.125700
     27 HN1          1.9050    -1.1860    -2.0960 hn         1 17S       0.489800
     28 H2           2.5540     0.9650    -0.1000 h1         1 17S       0.094700
     29 HN2         -1.0630     0.7500    -3.0370 hn         1 17S       0.479800
     30 HO2          3.7710    -0.9890     0.7260 ho         1 17S       0.485000
     31 H3           1.4600    -0.8700     2.1940 h1         1 17S       0.084700
     32 HO3          2.7490     0.6350     3.3510 ho         1 17S       0.458000
     33 H4           0.9640     2.1740     1.6790 h1         1 17S       0.087700
     34 HO4         -0.0720     1.9050     3.5840 ho         1 17S       0.439000
     35 H5          -1.0070    -0.2410     1.3610 h1         1 17S       0.090700
     36 H6          -1.2350     2.8070     0.6750 h1         1 17S       0.079200
     37 H6A         -2.2690     1.8190     1.8370 h1         1 17S       0.079200
     38 HO6         -3.3630     1.6710    -0.0620 ho         1 17S       0.448000
     39 H8          -2.3020     0.2510    -5.0890 h4         1 17S       0.012800
     40 H10         -4.6590    -2.2060    -3.2720 ha         1 17S       0.152500
     41 H11         -6.7550    -3.0260    -4.3370 ha         1 17S       0.181000
     42 H13         -5.8880    -0.6450    -7.8800 ha         1 17S       0.181000
     43 H14         -3.8060     0.1740    -6.8300 ha         1 17S       0.152500
     44 H15         -7.2770    -2.3110    -8.7170 h1         1 17S       0.075033
     45 H15A        -8.2000    -0.8910    -7.9830 h1         1 17S       0.075033
     46 H15B        -8.9920    -2.5540    -8.0820 h1         1 17S       0.075033
     47 H12          1.3810     0.3980    -2.3200 hn         1 17S       0.489800
     48 H23         -1.5560    -0.0510    -1.6400 hn         1 17S       0.479800
@<TRIPOS>BOND
     1     1     2 1   
     2     1     4 1   
     3     1    13 1   
     4     1    26 1   
     5     2    16 1   
     6     2    27 1   
     7     2    47 1   
     8     3    16 2   
     9     4     6 1   
    10     4     7 1   
    11     4    28 1   
    12     5     8 1   
    13     5    16 1   
    14     5    29 1   
    15     5    48 1   
    16     6    30 1   
    17     7     9 1   
    18     7    10 1   
    19     7    31 1   
    20     8    18 2   
    21     9    32 1   
    22    10    11 1   
    23    10    12 1   
    24    10    33 1   
    25    11    34 1   
    26    12    13 1   
    27    12    14 1   
    28    12    35 1   
    29    14    15 1   
    30    14    36 1   
    31    14    37 1   
    32    15    38 1   
    33    17    22 1   
    34    17    25 1   
    35    18    19 1   
    36    18    39 1   
    37    19    20 ar  
    38    19    24 ar  
    39    20    21 ar  
    40    20    40 1   
    41    21    22 ar  
    42    21    41 1   
    43    22    23 ar  
    44    23    24 ar  
    45    23    42 1   
    46    24    43 1   
    47    25    44 1   
    48    25    45 1   
    49    25    46 1   
@<TRIPOS>SUBSTRUCTURE
     1 17S         1 TEMP              0 ****  ****    0 ROOT
