@<TRIPOS>MOLECULE
molecule
   46    47     1     0     0
SMALL
bcc


@<TRIPOS>ATOM
      1 C1           0.0000     0.0000     0.0000 c3         1 17S       0.309500
      2 N1          -0.4880     0.0580    -1.3800 ns         1 17S      -0.486900
      3 S1          -2.4760    -1.4950    -0.5480 s          1 17S      -0.677400
      4 C2           1.5300     0.0000     0.0000 c3         1 17S       0.096100
      5 N2          -2.0650    -0.5430    -2.9940 ns         1 17S      -0.293900
      6 O2           2.0090    -1.1670    -0.6720 oh         1 17S      -0.589800
      7 C3           2.0340     0.0000     1.4470 c3         1 17S       0.113100
      8 N3          -1.3600     0.1920    -3.9560 n2         1 17S      -0.503300
      9 O3           3.4600     0.0740     1.4580 oh         1 17S      -0.607800
     10 C4           1.4530     1.2150     2.1780 c3         1 17S       0.099100
     11 O4           1.8560     1.1860     3.5480 oh         1 17S      -0.598800
     12 C5          -0.0760     1.1680     2.0930 c3         1 17S       0.156100
     13 O5          -0.4750     1.1380     0.7210 os         1 17S      -0.411600
     14 C6          -0.6620     2.4090     2.7690 c3         1 17S       0.153400
     15 O6          -2.0870     2.3090     2.7940 oh         1 17S      -0.589800
     16 C7          -1.6150    -0.5970    -1.7240 cs         1 17S       0.651400
     17 O7           1.0240     3.1860    -9.0270 os         1 17S      -0.324900
     18 C8          -1.7940     0.2440    -5.1780 ce         1 17S       0.437800
     19 C9          -1.0510     1.0180    -6.1900 ca         1 17S      -0.183900
     20 C10          0.1200     1.6920    -5.8370 ca         1 17S      -0.056500
     21 C11          0.8100     2.4150    -6.7870 ca         1 17S      -0.196500
     22 C12          0.3410     2.4730    -8.0930 ca         1 17S       0.162100
     23 C13         -0.8230     1.8040    -8.4490 ca         1 17S      -0.196500
     24 C14         -1.5160     1.0750    -7.5070 ca         1 17S      -0.056500
     25 C15          0.4870     3.2040   -10.3510 c3         1 17S       0.127700
     26 H1          -0.3590    -0.9040     0.4770 h2         1 17S       0.122700
     27 HN1          0.0080     0.5940    -2.0640 hn         1 17S       0.333500
     28 H2           1.8900     0.8880    -0.5060 h1         1 17S       0.049700
     29 HN2         -2.8910    -1.0450    -3.2540 hn         1 17S       0.350500
     30 HO2          2.7150    -0.9300    -1.2500 ho         1 17S       0.412000
     31 H3           1.7090    -0.9080     1.9410 h1         1 17S       0.069700
     32 HO3          3.8100    -0.6630     1.9310 ho         1 17S       0.417000
     33 H4           1.8120     2.1230     1.7090 h1         1 17S       0.053700
     34 HO4          2.5650     1.7940     3.6800 ho         1 17S       0.413000
     35 H5          -0.4360     0.2760     2.5910 h1         1 17S       0.075700
     36 H6          -0.3710     3.2930     2.2150 h1         1 17S       0.034200
     37 H6A         -0.2870     2.4780     3.7830 h1         1 17S       0.034200
     38 HO6         -2.4400     2.9910     3.3410 ho         1 17S       0.401000
     39 H8          -2.7000    -0.2820    -5.4550 h4         1 17S      -0.004200
     40 H10          0.4860     1.6470    -4.8180 ha         1 17S       0.142000
     41 H11          1.7180     2.9380    -6.5140 ha         1 17S       0.145000
     42 H13         -1.1820     1.8490    -9.4700 ha         1 17S       0.145000
     43 H14         -2.4240     0.5530    -7.7850 ha         1 17S       0.142000
     44 H15         -0.5100     3.6280   -10.3300 h1         1 17S       0.044700
     45 H15A         0.4410     2.1920   -10.7350 h1         1 17S       0.044700
     46 H15B         1.1220     3.8040   -10.9900 h1         1 17S       0.044700
@<TRIPOS>BOND
     1     4     1 1   
     2     1    13 1   
     3     1     2 1   
     4     1    26 1   
     5     2    16 1   
     6     2    27 1   
     7    16     3 2   
     8     7     4 1   
     9     6     4 1   
    10     4    28 1   
    11    16     5 1   
    12     5     8 1   
    13     5    29 1   
    14     6    30 1   
    15     9     7 1   
    16     7    10 1   
    17     7    31 1   
    18     8    18 2   
    19     9    32 1   
    20    11    10 1   
    21    10    12 1   
    22    10    33 1   
    23    11    34 1   
    24    12    14 1   
    25    12    13 1   
    26    12    35 1   
    27    15    14 1   
    28    14    36 1   
    29    14    37 1   
    30    15    38 1   
    31    22    17 1   
    32    17    25 1   
    33    18    19 1   
    34    18    39 1   
    35    19    24 ar  
    36    19    20 ar  
    37    20    21 ar  
    38    20    40 1   
    39    21    22 ar  
    40    21    41 1   
    41    23    22 ar  
    42    24    23 ar  
    43    23    42 1   
    44    24    43 1   
    45    25    44 1   
    46    25    45 1   
    47    25    46 1   
@<TRIPOS>SUBSTRUCTURE
     1 17S         1 TEMP              0 ****  ****    0 ROOT
