@<TRIPOS>MOLECULE
17S
   46    48     1     0     0
SMALL
bcc


@<TRIPOS>ATOM
      1 C1           0.0000     0.0000     0.0000 c3         1 17S       0.029000
      2 N1          -0.4880     0.0580    -1.3800 ns         1 17S       0.174000
      3 S1          -2.4760    -1.4950    -0.5480 s          1 17S      -0.400000
      4 C2           1.5300     0.0000     0.0000 c3         1 17S       0.024000
      5 N2          -2.0650    -0.5430    -2.9940 ns         1 17S       0.206000
      6 O2           2.0090    -1.1670    -0.6720 oh         1 17S      -0.300000
      7 C3           2.0340     0.0000     1.4470 c3         1 17S       0.036000
      8 N3          -1.3600     0.1920    -3.9560 n2         1 17S      -0.108000
      9 O3           3.4600     0.0740     1.4580 oh         1 17S      -0.319000
     10 C4           1.4530     1.2150     2.1780 c3         1 17S       0.024000
     11 O4           1.8560     1.1860     3.5480 oh         1 17S      -0.306000
     12 C5          -0.0760     1.1680     2.0930 c3         1 17S       0.062000
     13 O5          -0.4750     1.1380     0.7210 os         1 17S      -0.246000
     14 C6          -0.6620     2.4090     2.7690 c3         1 17S       0.074000
     15 O6          -2.0870     2.3090     2.7940 oh         1 17S      -0.300000
     16 C7          -1.6150    -0.5970    -1.7240 c2         1 17S      -0.123000
     17 O7           1.0240     3.1860    -9.0270 os         1 17S      -0.184000
     18 C8          -1.7940     0.2440    -5.1780 c2         1 17S      -0.400000
     19 C9          -1.0510     1.0180    -6.1900 c3         1 17S      -0.193000
     20 C10          0.1200     1.6920    -5.8370 c2         1 17S       0.003000
     21 C11          0.8100     2.4150    -6.7870 c2         1 17S      -0.199500
     22 C12          0.3410     2.4730    -8.0930 c2         1 17S       0.158000
     23 C13         -0.8230     1.8040    -8.4490 c2         1 17S      -0.199500
     24 C14         -1.5160     1.0750    -7.5070 c2         1 17S       0.003000
     25 C15          0.4870     3.2040   -10.3510 c3         1 17S       0.054000
     26 H1          -0.3590    -0.9040     0.4770 h2         1 17S       0.142000
     27 HN1         -0.0130     0.6240    -2.0550 hn         1 17S       0.086000
     28 H2           1.8900     0.8880    -0.5060 h1         1 17S       0.054000
     29 HN2         -2.8840    -1.0550    -3.2560 hn         1 17S       0.123000
     30 HO2          2.7960    -0.9570    -1.1460 ho         1 17S       0.199000
     31 H3           1.7090    -0.9080     1.9410 h1         1 17S       0.074000
     32 HO3          3.8080    -0.6330     1.9760 ho         1 17S       0.203000
     33 H4           1.8120     2.1230     1.7090 h1         1 17S       0.058000
     34 HO4          2.5400     1.8190     3.6880 ho         1 17S       0.197000
     35 H5          -0.4360     0.2760     2.5910 h1         1 17S       0.083000
     36 H6          -0.2870     2.4780     3.7830 h1         1 17S       0.034500
     37 H6A         -0.3710     3.2930     2.2160 h1         1 17S       0.034500
     38 HO6         -2.4380     2.9640     3.3740 ho         1 17S       0.185000
     39 H8          -1.8350     1.3220    -5.2760 DU         1 17S       0.332000
     40 H10          0.4860     1.6470    -4.8180 ha         1 17S       0.121500
     41 H11          1.7180     2.9380    -6.5140 ha         1 17S       0.127500
     42 H13         -1.1820     1.8490    -9.4700 ha         1 17S       0.127500
     43 H14         -2.4240     0.5530    -7.7850 ha         1 17S       0.121500
     44 H15          0.4460     2.1920   -10.7370 h1         1 17S       0.041667
     45 H15A         1.1200     3.8080   -10.9890 h1         1 17S       0.041667
     46 H15B        -0.5110     3.6230   -10.3300 h1         1 17S       0.041667
@<TRIPOS>BOND
     1     1     2 1   
     2     1     4 1   
     3     1    13 1   
     4     1    26 1   
     5     2    16 1   
     6     2    27 1   
     7     3    16 1   
     8     4     6 1   
     9     4     7 1   
    10     4    28 1   
    11     5     8 1   
    12     5    16 1   
    13     5    29 1   
    14     6    30 1   
    15     7     9 1   
    16     7    10 1   
    17     7    31 1   
    18     8    18 1   
    19     9    32 1   
    20    10    11 1   
    21    10    12 1   
    22    10    33 1   
    23    11    34 1   
    24    12    13 1   
    25    12    14 1   
    26    12    35 1   
    27    14    15 1   
    28    14    36 1   
    29    14    37 1   
    30    15    38 1   
    31    17    22 1   
    32    17    25 1   
    33    18    19 1   
    34    18    39 1   
    35    19    20 1   
    36    19    24 1   
    37    19    39 1   
    38    20    21 1   
    39    20    40 1   
    40    21    22 1   
    41    21    41 1   
    42    22    23 1   
    43    23    24 1   
    44    23    42 1   
    45    24    43 1   
    46    25    44 1   
    47    25    45 1   
    48    25    46 1   
@<TRIPOS>SUBSTRUCTURE
     1 17S         1 TEMP              0 ****  ****    0 ROOT
