@<TRIPOS>MOLECULE
17T
   42    44     1     0     0
SMALL
bcc


@<TRIPOS>ATOM
      1 C1           0.0000     0.0000     0.0000 c3         1 17T       0.023000
      2 N1          -0.4890     0.0590    -1.3790 ns         1 17T       0.174000
      3 S1          -2.4760    -1.4960    -0.5490 s          1 17T      -0.384000
      4 Cl1          1.2100     3.3910    -9.2830 cl         1 17T       0.077000
      5 C2           1.5310     0.0000     0.0000 c3         1 17T       0.020000
      6 N2          -2.0660    -0.5410    -2.9930 ns         1 17T       0.209000
      7 O2           2.0090    -1.1660    -0.6730 oh         1 17T      -0.299000
      8 C3           2.0340     0.0000     1.4470 c3         1 17T       0.046000
      9 N3          -1.3620     0.1950    -3.9540 n2         1 17T      -0.091000
     10 O3           3.4610     0.0740     1.4570 oh         1 17T      -0.316000
     11 C4           1.4520     1.2130     2.1790 c3         1 17T       0.026000
     12 O4           1.8570     1.1830     3.5490 oh         1 17T      -0.304000
     13 C5          -0.0760     1.1660     2.0950 c3         1 17T       0.061000
     14 O5          -0.4750     1.1380     0.7230 os         1 17T      -0.243000
     15 C6          -0.6620     2.4070     2.7710 c3         1 17T       0.075000
     16 O6          -2.0880     2.3070     2.7960 oh         1 17T      -0.300000
     17 C7          -1.6160    -0.5950    -1.7240 c2         1 17T      -0.127000
     18 C8          -1.7940     0.2470    -5.1760 c2         1 17T      -0.400000
     19 C9          -1.0530     1.0220    -6.1890 c3         1 17T      -0.148000
     20 C10         -1.5170     1.0810    -7.5050 c2         1 17T      -0.036500
     21 C11         -0.8200     1.8080    -8.4470 c2         1 17T      -0.118500
     22 C12          0.3380     2.4790    -8.0910 c2         1 17T      -0.078000
     23 C13          0.8030     2.4250    -6.7870 c2         1 17T      -0.118500
     24 C14          0.1110     1.7070    -5.8340 c2         1 17T      -0.036500
     25 H1          -0.3590    -0.9040     0.4770 h2         1 17T       0.142000
     26 HN1          0.0090     0.5920    -2.0640 hn         1 17T       0.085000
     27 H2           1.8910     0.8880    -0.5060 h1         1 17T       0.055000
     28 HN2         -2.9100    -1.0150    -3.2450 hn         1 17T       0.125000
     29 HO2          2.6180    -0.9130    -1.3470 ho         1 17T       0.194000
     30 H3           1.7100    -0.9080     1.9410 h1         1 17T       0.073000
     31 HO3          3.8120    -0.6800     1.9020 ho         1 17T       0.203000
     32 H4           1.8100     2.1220     1.7110 h1         1 17T       0.058000
     33 HO4          2.5150     1.8420     3.6970 ho         1 17T       0.197000
     34 H5          -0.4360     0.2730     2.5920 h1         1 17T       0.083000
     35 H6          -0.3710     3.2920     2.2180 h1         1 17T       0.035000
     36 H6A         -0.2870     2.4760     3.7860 h1         1 17T       0.035000
     37 HO6         -2.4440     3.0170     3.3050 ho         1 17T       0.186000
     38 H8          -0.8900    -0.0930    -5.6660 DU         1 17T       0.324000
     39 H10         -2.4230     0.5560    -7.7860 ha         1 17T       0.124000
     40 H11         -1.1790     1.8540    -9.4680 ha         1 17T       0.122500
     41 H13          1.7060     2.9570    -6.5130 ha         1 17T       0.122500
     42 H14          0.4750     1.6650    -4.8150 ha         1 17T       0.124000
@<TRIPOS>BOND
     1     1     2 1   
     2     1     5 1   
     3     1    14 1   
     4     1    25 1   
     5     2    17 1   
     6     2    26 1   
     7     3    17 1   
     8     4    22 1   
     9     5     7 1   
    10     5     8 1   
    11     5    27 1   
    12     6     9 1   
    13     6    17 1   
    14     6    28 1   
    15     7    29 1   
    16     8    10 1   
    17     8    11 1   
    18     8    30 1   
    19     9    18 1   
    20    10    31 1   
    21    11    12 1   
    22    11    13 1   
    23    11    32 1   
    24    12    33 1   
    25    13    14 1   
    26    13    15 1   
    27    13    34 1   
    28    15    16 1   
    29    15    35 1   
    30    15    36 1   
    31    16    37 1   
    32    18    19 1   
    33    18    38 1   
    34    19    20 1   
    35    19    24 1   
    36    19    38 1   
    37    20    21 1   
    38    20    39 1   
    39    21    22 1   
    40    21    40 1   
    41    22    23 1   
    42    23    24 1   
    43    23    41 1   
    44    24    42 1   
@<TRIPOS>SUBSTRUCTURE
     1 17T         1 TEMP              0 ****  ****    0 ROOT
