@<TRIPOS>MOLECULE
molecule
   42    43     1     0     0
SMALL
bcc


@<TRIPOS>ATOM
      1 C1           0.0000     0.0000     0.0000 c3         1 17T       0.308500
      2 N1          -0.4890     0.0590    -1.3790 ns         1 17T      -0.485900
      3 S1          -2.4760    -1.4960    -0.5490 s          1 17T      -0.668400
      4 Cl1          1.2100     3.3910    -9.2830 cl         1 17T      -0.098400
      5 C2           1.5310     0.0000     0.0000 c3         1 17T       0.096100
      6 N2          -2.0660    -0.5410    -2.9930 ns         1 17T      -0.293900
      7 O2           2.0090    -1.1660    -0.6730 oh         1 17T      -0.589800
      8 C3           2.0340     0.0000     1.4470 c3         1 17T       0.113100
      9 N3          -1.3620     0.1950    -3.9540 n2         1 17T      -0.492300
     10 O3           3.4610     0.0740     1.4570 oh         1 17T      -0.607800
     11 C4           1.4520     1.2130     2.1790 c3         1 17T       0.099100
     12 O4           1.8570     1.1830     3.5490 oh         1 17T      -0.598800
     13 C5          -0.0760     1.1660     2.0950 c3         1 17T       0.155100
     14 O5          -0.4750     1.1380     0.7230 os         1 17T      -0.412600
     15 C6          -0.6620     2.4070     2.7710 c3         1 17T       0.153400
     16 O6          -2.0880     2.3070     2.7960 oh         1 17T      -0.590800
     17 C7          -1.6160    -0.5950    -1.7240 cs         1 17T       0.648400
     18 C8          -1.7940     0.2470    -5.1760 ce         1 17T       0.425800
     19 C9          -1.0530     1.0220    -6.1890 ca         1 17T      -0.138900
     20 C10         -1.5170     1.0810    -7.5050 ca         1 17T      -0.088000
     21 C11         -0.8200     1.8080    -8.4470 ca         1 17T      -0.126500
     22 C12          0.3380     2.4790    -8.0910 ca         1 17T       0.044400
     23 C13          0.8030     2.4250    -6.7870 ca         1 17T      -0.126500
     24 C14          0.1110     1.7070    -5.8340 ca         1 17T      -0.088000
     25 H1          -0.3590    -0.9040     0.4770 h2         1 17T       0.122700
     26 HN1         -0.0020     0.6090    -2.0590 hn         1 17T       0.333500
     27 H2           1.8910     0.8880    -0.5060 h1         1 17T       0.049700
     28 HN2         -2.9040    -1.0250    -3.2470 hn         1 17T       0.352500
     29 HO2          2.7150    -0.9290    -1.2510 ho         1 17T       0.412000
     30 H3           1.7100    -0.9080     1.9410 h1         1 17T       0.069700
     31 HO3          3.8100    -0.6630     1.9300 ho         1 17T       0.417000
     32 H4           1.8100     2.1220     1.7110 h1         1 17T       0.053700
     33 HO4          2.5530     1.8050     3.6850 ho         1 17T       0.413000
     34 H5          -0.4360     0.2730     2.5920 h1         1 17T       0.076700
     35 H6          -0.2870     2.4770     3.7850 h1         1 17T       0.034200
     36 H6A         -0.3720     3.2920     2.2180 h1         1 17T       0.034200
     37 HO6         -2.4410     2.9920     3.3390 ho         1 17T       0.401000
     38 H8          -2.7000    -0.2790    -5.4530 h4         1 17T      -0.001200
     39 H10         -2.4230     0.5560    -7.7860 ha         1 17T       0.146000
     40 H11         -1.1790     1.8540    -9.4680 ha         1 17T       0.149500
     41 H13          1.7060     2.9570    -6.5130 ha         1 17T       0.149500
     42 H14          0.4750     1.6650    -4.8150 ha         1 17T       0.146000
@<TRIPOS>BOND
     1     5     1 1
     2     1    14 1
     3     1     2 1
     4     1    25 1
     5     2    17 1
     6     2    26 1
     7    17     3 2
     8    22     4 1
     9     8     5 1
    10     7     5 1
    11     5    27 1
    12    17     6 1
    13     6     9 1
    14     6    28 1
    15     7    29 1
    16    10     8 1
    17     8    11 1
    18     8    30 1
    19     9    18 2
    20    10    31 1
    21    12    11 1
    22    11    13 1
    23    11    32 1
    24    12    33 1
    25    13    15 1
    26    13    14 1
    27    13    34 1
    28    16    15 1
    29    15    35 1
    30    15    36 1
    31    16    37 1
    32    18    19 1
    33    18    38 1
    34    19    20 ar
    35    19    24 ar
    36    20    21 ar
    37    20    39 1
    38    21    22 ar
    39    21    40 1
    40    23    22 ar
    41    24    23 ar
    42    23    41 1
    43    24    42 1
@<TRIPOS>SUBSTRUCTURE
     1 17T         1 TEMP              0 ****  ****    0 ROOT
