@<TRIPOS>MOLECULE
17U
   31    30     1     0     0
SMALL
bcc


@<TRIPOS>ATOM
      1 N3           0.0000     0.0000     0.0000 nz         1 17U       0.066400
      2 C11          1.4680     0.0000     0.0000 c3         1 17U      -0.102500
      3 C16          1.9790     0.0000     1.4430 c3         1 17U       0.245300
      4 O6           1.4540    -1.1360     2.1340 oh         1 17U      -0.590800
      5 C17          3.4840    -0.0620     1.4430 c2         1 17U      -0.208400
      6 C23          4.1870    -1.2970     0.9420 c3         1 17U       0.067100
      7 C18          4.1820     0.9570     1.8800 c2         1 17U      -0.093000
      8 C12          1.9790     1.2480    -0.7220 c3         1 17U      -0.043400
      9 C13          1.5300     1.2120    -2.1840 c3         1 17U      -0.065700
     10 C15          1.9370     2.5150    -2.8760 c3         1 17U       0.007900
     11 C14          2.1950     0.0300    -2.8910 c3         1 17U       0.007900
     12 H12         -0.3340    -0.0760     0.9410 hn         1 17U       0.227467
     13 H13          1.8290    -0.8850    -0.5100 hx         1 17U       0.116700
     14 H14          1.6550     0.9060     1.9410 h1         1 17U       0.017700
     15 H15          1.1690    -0.8760     2.9940 ho         1 17U       0.423000
     16 H16          3.8440    -2.1600     1.5000 hc         1 17U       0.018367
     17 H17          5.2560    -1.1830     1.0740 hc         1 17U       0.018367
     18 H18          3.9660    -1.4370    -0.1100 hc         1 17U       0.018367
     19 H19          3.6770     1.8450     2.2410 ha         1 17U       0.098500
     20 H20          5.2650     0.9120     1.8790 ha         1 17U       0.098500
     21 H21          1.5770     2.1320    -0.2420 hc         1 17U       0.057700
     22 H22          3.0610     1.2740    -0.6770 hc         1 17U       0.057700
     23 H23          0.4540     1.1000    -2.2290 hc         1 17U      -0.004300
     24 H24          1.6010     2.4970    -3.9060 hc         1 17U       0.017367
     25 H25          1.4820     3.3530    -2.3620 hc         1 17U       0.017367
     26 H26          3.0150     2.6160    -2.8490 hc         1 17U       0.017367
     27 H27          3.2650     0.0630    -2.7220 hc         1 17U       0.017367
     28 H28          1.9970     0.0860    -3.9550 hc         1 17U       0.017367
     29 H29          1.7960    -0.8970    -2.4980 hc         1 17U       0.017367
     30 H2          -0.3340    -0.7760    -0.5360 hn         1 17U       0.227467
     31 H33         -0.3340     0.8530    -0.4040 hn         1 17U       0.227467
@<TRIPOS>BOND
     1     1     2 1   
     2     1    12 1   
     3     1    30 1   
     4     1    31 1   
     5     2     3 1   
     6     2     8 1   
     7     2    13 1   
     8     3     4 1   
     9     3     5 1   
    10     3    14 1   
    11     4    15 1   
    12     5     6 1   
    13     5     7 2   
    14     6    16 1   
    15     6    17 1   
    16     6    18 1   
    17     7    19 1   
    18     7    20 1   
    19     8     9 1   
    20     8    21 1   
    21     8    22 1   
    22     9    10 1   
    23     9    11 1   
    24     9    23 1   
    25    10    24 1   
    26    10    25 1   
    27    10    26 1   
    28    11    27 1   
    29    11    28 1   
    30    11    29 1   
@<TRIPOS>SUBSTRUCTURE
     1 17U         1 TEMP              0 ****  ****    0 ROOT
