@<TRIPOS>MOLECULE
molecule
   31    30     1     0     0
SMALL
bcc


@<TRIPOS>ATOM
      1 N3           0.0000     0.0000     0.0000 nz         1 17U      -0.807600
      2 C11          1.4680     0.0000     0.0000 c3         1 17U       0.105500
      3 C16          1.9790     0.0000     1.4430 c3         1 17U       0.171300
      4 O6           1.4540    -1.1360     2.1340 oh         1 17U      -0.613800
      5 C17          3.4840    -0.0620     1.4430 c2         1 17U      -0.185400
      6 C23          4.1870    -1.2970     0.9420 c3         1 17U      -0.047900
      7 C18          4.1820     0.9570     1.8800 c2         1 17U      -0.166000
      8 C12          1.9790     1.2480    -0.7220 c3         1 17U      -0.107400
      9 C13          1.5300     1.2120    -2.1840 c3         1 17U      -0.090700
     10 C15          1.9370     2.5150    -2.8760 c3         1 17U      -0.090600
     11 C14          2.1950     0.0300    -2.8910 c3         1 17U      -0.090600
     12 H12         -0.3340    -0.0100     0.9440 hn         1 17U       0.455800
     13 H13          1.8290    -0.8850    -0.5100 hx         1 17U       0.132700
     14 H14          1.6550     0.9060     1.9410 h1         1 17U       0.050700
     15 H15          1.3420    -0.9250     3.0460 ho         1 17U       0.440000
     16 H16          4.9040    -1.0200     0.1780 hc         1 17U       0.054700
     17 H17          4.7040    -1.7780     1.7640 hc         1 17U       0.054700
     18 H18          3.4600    -1.9820     0.5230 hc         1 17U       0.054700
     19 H19          5.2650     0.9120     1.8800 ha         1 17U       0.133000
     20 H20          3.6770     1.8450     2.2410 ha         1 17U       0.133000
     21 H21          3.0610     1.2740    -0.6770 hc         1 17U       0.087700
     22 H22          1.5770     2.1320    -0.2420 hc         1 17U       0.087700
     23 H23          0.4540     1.1000    -2.2290 hc         1 17U       0.019700
     24 H24          1.4820     3.3530    -2.3620 hc         1 17U       0.051200
     25 H25          3.0150     2.6160    -2.8490 hc         1 17U       0.051200
     26 H26          1.6010     2.4970    -3.9060 hc         1 17U       0.051200
     27 H27          3.2680     0.0790    -2.7460 hc         1 17U       0.051200
     28 H28          1.8170    -0.8980    -2.4780 hc         1 17U       0.051200
     29 H29          1.9720     0.0700    -3.9510 hc         1 17U       0.051200
     30 H2          -0.3340    -0.8120    -0.4810 hn         1 17U       0.455800
     31 H33         -0.3340     0.8220    -0.4630 hn         1 17U       0.455800
@<TRIPOS>BOND
     1    10     9 1   
     2     1     2 1   
     3     6     5 1   
     4     2     8 1   
     5     2     3 1   
     6     9    11 1   
     7     9     8 1   
     8     5     7 2   
     9     5     3 1   
    10     3     4 1   
    11     1    12 1   
    12     2    13 1   
    13     3    14 1   
    14     4    15 1   
    15     6    16 1   
    16     6    17 1   
    17     6    18 1   
    18     7    19 1   
    19     7    20 1   
    20     8    21 1   
    21     8    22 1   
    22     9    23 1   
    23    10    24 1   
    24    10    25 1   
    25    10    26 1   
    26    11    27 1   
    27    11    28 1   
    28    11    29 1   
    29     1    30 1   
    30    31     1 1   
@<TRIPOS>SUBSTRUCTURE
     1 17U         1 TEMP              0 ****  ****    0 ROOT
