@<TRIPOS>MOLECULE
17U
   31    30     1     0     0
SMALL
bcc


@<TRIPOS>ATOM
      1 N3          -0.0730    -0.1460    -0.0110 nz         1 17U      -0.840600
      2 C11          1.4290    -0.0640    -0.0050 c3         1 17U       0.132500
      3 C16          1.9220     0.1090     1.4600 c3         1 17U       0.158300
      4 O6           1.2840     1.2830     1.9430 oh         1 17U      -0.625800
      5 C17          1.5850    -1.1090     2.2750 c2         1 17U      -0.202400
      6 C23          2.5680    -2.2140     2.1850 c3         1 17U      -0.071900
      7 C18          0.4980    -1.1640     3.0510 c2         1 17U      -0.195000
      8 C12          1.9370     1.0710    -0.8940 c3         1 17U      -0.106400
      9 C13          2.1150     0.6700    -2.3500 c3         1 17U      -0.079700
     10 C15          0.8100     0.3100    -3.0280 c3         1 17U      -0.104600
     11 C14          2.7910     1.8090    -3.0930 c3         1 17U      -0.104600
     12 H12         -0.4500     0.7440     0.3390 hn         1 17U       0.463467
     13 H13          1.8160    -1.0560    -0.3900 hx         1 17U       0.114700
     14 H14          3.0400     0.2550     1.4340 h1         1 17U       0.097700
     15 H15          1.6420     1.4670     2.8230 ho         1 17U       0.452000
     16 H16          2.8130    -2.4470     1.1190 hc         1 17U       0.061033
     17 H17          2.1800    -3.1440     2.6700 hc         1 17U       0.061033
     18 H18          3.5170    -1.9220     2.7040 hc         1 17U       0.061033
     19 H19          0.2610    -2.0440     3.6680 ha         1 17U       0.137500
     20 H20         -0.1990    -0.3200     3.1500 ha         1 17U       0.137500
     21 H21          2.9390     1.3880    -0.4900 hc         1 17U       0.087700
     22 H22          1.2710     1.9720    -0.8150 hc         1 17U       0.087700
     23 H23          2.7970    -0.2280    -2.3930 hc         1 17U       0.062700
     24 H24          0.9480     0.3060    -4.1390 hc         1 17U       0.047700
     25 H25          0.0110     1.0530    -2.7890 hc         1 17U       0.047700
     26 H26          0.4720    -0.7150    -2.7360 hc         1 17U       0.047700
     27 H27          3.7600     2.0740    -2.6070 hc         1 17U       0.047700
     28 H28          2.1370     2.7140    -3.1030 hc         1 17U       0.047700
     29 H29          2.9970     1.5080    -4.1490 hc         1 17U       0.047700
     30 H2          -0.3710    -0.8990     0.6200 hn         1 17U       0.463467
     31 H33         -0.4160    -0.3150    -0.9610 hn         1 17U       0.463467
@<TRIPOS>BOND
     1     1     2 1   
     2     1    12 1   
     3     1    30 1   
     4     1    31 1   
     5     2     3 1   
     6     2     8 1   
     7     2    13 1   
     8     3     4 1   
     9     3     5 1   
    10     3    14 1   
    11     4    15 1   
    12     5     6 1   
    13     5     7 2   
    14     6    16 1   
    15     6    17 1   
    16     6    18 1   
    17     7    19 1   
    18     7    20 1   
    19     8     9 1   
    20     8    21 1   
    21     8    22 1   
    22     9    10 1   
    23     9    11 1   
    24     9    23 1   
    25    10    24 1   
    26    10    25 1   
    27    10    26 1   
    28    11    27 1   
    29    11    28 1   
    30    11    29 1   
@<TRIPOS>SUBSTRUCTURE
     1 17U         1 TEMP              0 ****  ****    0 ROOT
