@<TRIPOS>MOLECULE
17V
   44    47     1     0     0
SMALL
bcc


@<TRIPOS>ATOM
      1 C1           0.0000     0.0000     0.0000 c3         1 17V      -0.006100
      2 C2           1.5290     0.0000     0.0000 c3         1 17V      -0.057000
      3 C3           2.0400     0.0000     1.4430 c3         1 17V      -0.006100
      4 N4           2.0180    -1.1950    -0.6920 na         1 17V       0.360600
      5 C5           2.8040    -1.2340    -1.8020 cc         1 17V       0.339000
      6 N6           3.0130    -2.5040    -2.0990 nd         1 17V      -0.674000
      7 C7           2.3900    -3.2800    -1.2190 cd         1 17V       0.609900
      8 N8           1.7760    -2.5330    -0.3380 nc         1 17V      -0.656800
      9 C9           3.3250    -0.0720    -2.5390 cc         1 17V       0.016400
     10 C10          4.3270    -0.1120    -3.4590 cd         1 17V      -0.083000
     11 C11          4.6570     1.0970    -4.0290 cd         1 17V      -0.057300
     12 C12          3.8980     2.1440    -3.5570 cc         1 17V      -0.018100
     13 S13          2.7400     1.5780    -2.3710 ss         1 17V      -0.206800
     14 C14          4.0940     3.5270    -4.0430 ca         1 17V       0.079000
     15 C15          4.1480     4.6150    -3.1790 ca         1 17V      -0.070000
     16 C16          4.3670     5.8690    -3.6810 ca         1 17V      -0.090000
     17 C17          4.5410     6.0570    -5.0550 ca         1 17V      -0.238600
     18 C18          4.4730     4.9700    -5.9320 ca         1 17V      -0.008000
     19 C19          4.2340     3.7080    -5.4330 ca         1 17V       0.145100
     20 O20          4.0640     2.6370    -6.2400 os         1 17V      -0.324900
     21 C21          5.1110     1.6820    -6.4150 c3         1 17V       0.237400
     22 C22          5.7380     1.3040    -5.0750 c3         1 17V      -0.004100
     23 C23          4.7960     7.4120    -5.5840 c          1 17V       0.355700
     24 O24          4.9460     7.5790    -6.7790 o          1 17V      -0.433100
     25 N25          4.8610     8.4630    -4.7420 nz         1 17V       0.200600
     26 H1          -0.3610    -0.2310    -0.9950 hc         1 17V       0.021200
     27 H2          -0.3610    -0.7460     0.6980 hc         1 17V       0.021200
     28 H3          -0.3610     0.9770     0.2970 hc         1 17V       0.021200
     29 H4           1.8900     0.8850    -0.5100 h1         1 17V       0.053700
     30 H5           1.7680     0.9330     1.9220 hc         1 17V       0.021200
     31 H6           1.5960    -0.8270     1.9830 hc         1 17V       0.021200
     32 H7           3.1180    -0.1060     1.4440 hc         1 17V       0.021200
     33 H8           2.3960    -4.3630    -1.2250 h5         1 17V       0.031100
     34 H9           4.8320    -1.0340    -3.7240 ha         1 17V       0.153000
     35 H10          4.0130     4.4710    -2.1130 ha         1 17V       0.135000
     36 H11          4.4210     6.7170    -3.0100 ha         1 17V       0.080000
     37 H12          4.6080     5.1190    -6.9960 ha         1 17V       0.144000
     38 H13          4.6760     0.7860    -6.8430 h1         1 17V       0.028200
     39 H14          5.8810     2.1410    -7.0240 h1         1 17V       0.028200
     40 H15          6.3800     2.1140    -4.7520 hc         1 17V       0.036200
     41 H16          6.2830     0.3760    -5.1970 hc         1 17V       0.036200
     42 H17          3.9920     8.5540    -4.2540 hn         1 17V       0.246467
     43 H18          5.0390     9.2980    -5.2650 hn         1 17V       0.246467
     44 H253         5.6000     8.3170    -4.0830 hn         1 17V       0.246467
@<TRIPOS>BOND
     1     1     2 1   
     2     1    26 1   
     3     1    27 1   
     4     1    28 1   
     5     2     3 1   
     6     2     4 1   
     7     2    29 1   
     8     3    30 1   
     9     3    31 1   
    10     3    32 1   
    11     4     5 1   
    12     4     8 1   
    13     5     6 2   
    14     5     9 1   
    15     6     7 1   
    16     7     8 2   
    17     7    33 1   
    18     9    10 2   
    19     9    13 1   
    20    10    11 1   
    21    10    34 1   
    22    11    12 2   
    23    11    22 1   
    24    12    13 1   
    25    12    14 1   
    26    14    15 ar  
    27    14    19 ar  
    28    15    16 ar  
    29    15    35 1   
    30    16    17 ar  
    31    16    36 1   
    32    17    18 ar  
    33    17    23 1   
    34    18    19 ar  
    35    18    37 1   
    36    19    20 1   
    37    20    21 1   
    38    21    22 1   
    39    21    38 1   
    40    21    39 1   
    41    22    40 1   
    42    22    41 1   
    43    23    24 2   
    44    23    25 1   
    45    25    42 1   
    46    25    43 1   
    47    25    44 1   
@<TRIPOS>SUBSTRUCTURE
     1 17V         1 TEMP              0 ****  ****    0 ROOT
