@<TRIPOS>MOLECULE
molecule
   44    47     1     0     0
SMALL
bcc


@<TRIPOS>ATOM
      1 C1           0.0000     0.0000     0.0000 c3         1 17V      -0.104600
      2 C2           1.5290     0.0000     0.0000 c3         1 17V       0.075000
      3 C3           2.0400     0.0000     1.4430 c3         1 17V      -0.104600
      4 N4           2.0180    -1.1950    -0.6920 na         1 17V      -0.058400
      5 C5           2.8040    -1.2340    -1.8020 cc         1 17V       0.510000
      6 N6           3.0130    -2.5040    -2.0990 nd         1 17V      -0.738000
      7 C7           2.3900    -3.2800    -1.2190 cd         1 17V       0.573900
      8 N8           1.7760    -2.5330    -0.3380 nc         1 17V      -0.522800
      9 C9           3.3250    -0.0720    -2.5390 cc         1 17V      -0.043600
     10 C10          4.3270    -0.1120    -3.4590 cd         1 17V      -0.107000
     11 C11          4.6570     1.0970    -4.0290 cd         1 17V      -0.064300
     12 C12          3.8980     2.1440    -3.5570 cc         1 17V      -0.064100
     13 S13          2.7400     1.5780    -2.3710 ss         1 17V      -0.063800
     14 C14          4.0940     3.5270    -4.0430 ca         1 17V       0.062000
     15 C15          4.1480     4.6150    -3.1790 ca         1 17V      -0.104000
     16 C16          4.3670     5.8690    -3.6810 ca         1 17V      -0.117000
     17 C17          4.5410     6.0570    -5.0550 ca         1 17V      -0.216600
     18 C18          4.4730     4.9700    -5.9320 ca         1 17V      -0.045000
     19 C19          4.2340     3.7080    -5.4330 ca         1 17V       0.140100
     20 O20          4.0640     2.6370    -6.2400 os         1 17V      -0.336900
     21 C21          5.1110     1.6820    -6.4150 c3         1 17V       0.159400
     22 C22          5.7380     1.3040    -5.0750 c3         1 17V      -0.066100
     23 C23          4.7960     7.4120    -5.5840 c          1 17V       0.506700
     24 O24          4.9460     7.5790    -6.7790 o          1 17V      -0.422100
     25 N25          4.8610     8.4630    -4.7420 nz         1 17V      -0.678400
     26 H1          -0.3610    -0.2310    -0.9950 hc         1 17V       0.055200
     27 H2          -0.3610    -0.7460     0.6980 hc         1 17V       0.055200
     28 H3          -0.3610     0.9770     0.2970 hc         1 17V       0.055200
     29 H4           1.8900     0.8850    -0.5100 h1         1 17V       0.051700
     30 H5           1.7680     0.9330     1.9220 hc         1 17V       0.055200
     31 H6           1.5960    -0.8270     1.9830 hc         1 17V       0.055200
     32 H7           3.1180    -0.1060     1.4440 hc         1 17V       0.055200
     33 H8           2.3960    -4.3630    -1.2250 h5         1 17V       0.088100
     34 H9           4.8320    -1.0340    -3.7240 ha         1 17V       0.184000
     35 H10          4.0130     4.4710    -2.1130 ha         1 17V       0.165000
     36 H11          4.4210     6.7170    -3.0100 ha         1 17V       0.108000
     37 H12          4.6080     5.1190    -6.9960 ha         1 17V       0.179000
     38 H13          4.6760     0.7860    -6.8430 h1         1 17V       0.074200
     39 H14          5.8810     2.1410    -7.0240 h1         1 17V       0.074200
     40 H15          6.3800     2.1140    -4.7520 hc         1 17V       0.070200
     41 H16          6.2830     0.3760    -5.1970 hc         1 17V       0.070200
     42 H17          3.9920     8.5540    -4.2540 hn         1 17V       0.477133
     43 H18          5.0390     9.2980    -5.2650 hn         1 17V       0.477133
     44 H253         5.6000     8.3170    -4.0830 hn         1 17V       0.477133
@<TRIPOS>BOND
     1     3     2 1   
     2     1     2 1   
     3     2     4 1   
     4     8     4 1   
     5     8     7 2   
     6     4     5 1   
     7     7     6 1   
     8     5     6 2   
     9     5     9 1   
    10    13     9 1   
    11    13    12 1   
    12     9    10 2   
    13    15    16 ar  
    14    15    14 ar  
    15    24    23 2   
    16    16    17 ar  
    17    12    14 1   
    18    12    11 2   
    19    14    19 ar  
    20    17    23 1   
    21    17    18 ar  
    22    23    25 1   
    23    10    11 1   
    24    19    18 ar  
    25    19    20 1   
    26    11    22 1   
    27    20    21 1   
    28    22    21 1   
    29     1    26 1   
    30     1    27 1   
    31     1    28 1   
    32     2    29 1   
    33     3    30 1   
    34     3    31 1   
    35     3    32 1   
    36     7    33 1   
    37    10    34 1   
    38    15    35 1   
    39    16    36 1   
    40    18    37 1   
    41    21    38 1   
    42    21    39 1   
    43    22    40 1   
    44    22    41 1   
    45    25    42 1   
    46    25    43 1   
    47    44    25 1   
@<TRIPOS>SUBSTRUCTURE
     1 17V         1 TEMP              0 ****  ****    0 ROOT
