@<TRIPOS>MOLECULE
17V
   44    47     1     0     0
SMALL
bcc


@<TRIPOS>ATOM
      1 C1           0.4970     0.6450     0.1990 c3         1 17V      -0.110100
      2 C2           1.8960     0.0350     0.1300 c3         1 17V       0.073000
      3 C3           2.2820    -0.5040     1.5070 c3         1 17V      -0.110100
      4 N4           2.0110    -0.9810    -0.9220 na         1 17V      -0.028400
      5 C5           2.9550    -1.0130    -1.9860 cc         1 17V       0.448000
      6 N6           2.7800    -2.1720    -2.6880 nd         1 17V      -0.650000
      7 C7           1.7320    -2.8090    -2.0190 cd         1 17V       0.506900
      8 N8           1.2710    -2.0940    -0.9500 nc         1 17V      -0.496800
      9 C9           3.9390    -0.0040    -2.2960 cc         1 17V      -0.102600
     10 C10          5.1880    -0.3050    -2.8170 cd         1 17V      -0.124000
     11 C11          5.9490     0.8670    -3.0990 cd         1 17V      -0.042300
     12 C12          5.2490     2.0320    -2.7850 cc         1 17V      -0.127100
     13 S13          3.7150     1.6460    -2.1720 ss         1 17V       0.066200
     14 C14          5.6440     3.4070    -2.8910 ca         1 17V       0.085000
     15 C15          4.7320     4.3870    -2.4380 ca         1 17V      -0.144000
     16 C16          5.0240     5.7400    -2.4520 ca         1 17V      -0.040000
     17 C17          6.2690     6.1840    -2.9370 ca         1 17V      -0.211600
     18 C18          7.1860     5.2450    -3.4260 ca         1 17V      -0.114000
     19 C19          6.8830     3.8750    -3.4030 ca         1 17V       0.127100
     20 O20          7.9340     3.1050    -3.8470 os         1 17V      -0.330900
     21 C21          7.6230     1.9220    -4.5900 c3         1 17V       0.131400
     22 C22          7.3070     0.7710    -3.6590 c3         1 17V      -0.065100
     23 C23          6.5150     7.6130    -2.9040 c          1 17V       0.580700
     24 O24          5.7790     8.5330    -2.5760 o          1 17V      -0.427100
     25 N25          7.9050     8.0810    -3.3260 nz         1 17V      -0.763400
     26 H1          -0.2560    -0.1210     0.5070 hc         1 17V       0.057700
     27 H2           0.5050     1.4650     0.9560 hc         1 17V       0.057700
     28 H3           0.1890     1.0680    -0.7870 hc         1 17V       0.057700
     29 H4           2.6320     0.8500    -0.1560 h1         1 17V       0.046700
     30 H5           2.2450     0.3370     2.2400 hc         1 17V       0.057700
     31 H6           3.3130    -0.9290     1.4990 hc         1 17V       0.057700
     32 H7           1.5700    -1.2990     1.8370 hc         1 17V       0.057700
     33 H8           1.3270    -3.7790    -2.3280 h5         1 17V       0.083100
     34 H9           5.5530    -1.3210    -3.0040 ha         1 17V       0.190000
     35 H10          3.7470     4.0720    -2.0470 ha         1 17V       0.164000
     36 H11          4.2860     6.4730    -2.0810 ha         1 17V       0.172000
     37 H12          8.1670     5.5260    -3.8370 ha         1 17V       0.137000
     38 H13          6.7890     2.1160    -5.3110 h1         1 17V       0.077700
     39 H14          8.5830     1.7300    -5.1470 h1         1 17V       0.077700
     40 H15          8.0550     0.7540    -2.8170 hc         1 17V       0.089700
     41 H16          7.4190    -0.1930    -4.2270 hc         1 17V       0.089700
     42 H17          8.6140     7.6260    -2.7460 hn         1 17V       0.466133
     43 H18          7.9750     9.1000    -3.2150 hn         1 17V       0.466133
     44 H253         8.0690     7.8360    -4.3060 hn         1 17V       0.466133
@<TRIPOS>BOND
     1     1     2 1   
     2     1    26 1   
     3     1    27 1   
     4     1    28 1   
     5     2     3 1   
     6     2     4 1   
     7     2    29 1   
     8     3    30 1   
     9     3    31 1   
    10     3    32 1   
    11     4     5 1   
    12     4     8 1   
    13     5     6 2   
    14     5     9 1   
    15     6     7 1   
    16     7     8 2   
    17     7    33 1   
    18     9    10 2   
    19     9    13 1   
    20    10    11 1   
    21    10    34 1   
    22    11    12 2   
    23    11    22 1   
    24    12    13 1   
    25    12    14 1   
    26    14    15 ar  
    27    14    19 ar  
    28    15    16 ar  
    29    15    35 1   
    30    16    17 ar  
    31    16    36 1   
    32    17    18 ar  
    33    17    23 1   
    34    18    19 ar  
    35    18    37 1   
    36    19    20 1   
    37    20    21 1   
    38    21    22 1   
    39    21    38 1   
    40    21    39 1   
    41    22    40 1   
    42    22    41 1   
    43    23    24 2   
    44    23    25 1   
    45    25    42 1   
    46    25    43 1   
    47    25    44 1   
@<TRIPOS>SUBSTRUCTURE
     1 17V         1 TEMP              0 ****  ****    0 ROOT
