@<TRIPOS>MOLECULE
molecule
   33    35     1     0     0
SMALL
bcc


@<TRIPOS>ATOM
      1 C19          0.0000     0.0000     0.0000 ca         1 17W      -0.188500
      2 C18          1.3810     0.0000     0.0000 ca         1 17W      -0.090500
      3 C17          2.0750     0.0000     1.1960 ca         1 17W      -0.166000
      4 C16          1.3870     0.0010     2.3960 ca         1 17W      -0.090500
      5 C15          0.0060     0.0010     2.4020 ca         1 17W      -0.188500
      6 C14         -0.6920     0.0060     1.2020 ca         1 17W       0.142100
      7 O13         -2.0500     0.0060     1.2050 os         1 17W      -0.324900
      8 C12         -2.7030     0.0120    -0.0660 c3         1 17W       0.148400
      9 C11         -4.2190     0.0120     0.1380 c3         1 17W       0.003700
     10 S10         -5.0440     0.0180    -1.4740 ss         1 17W      -0.186300
     11 C8          -6.7280     0.0160    -0.9540 cc         1 17W       0.445700
     12 N9          -7.8080     0.0200    -1.7920 na         1 17W      -0.249300
     13 C2          -8.9430     0.0160    -0.9970 ca         1 17W      -0.087200
     14 N7          -7.1320     0.0050     0.2930 nd         1 17W      -0.612100
     15 C3          -8.4890     0.0100     0.3320 ca         1 17W       0.100400
     16 C4          -9.4190     0.0020     1.3750 ca         1 17W      -0.072000
     17 C5         -10.7660     0.0100     1.0910 ca         1 17W      -0.144000
     18 C6         -11.2090     0.0250    -0.2240 ca         1 17W      -0.113000
     19 C1         -10.3030     0.0170    -1.2660 ca         1 17W      -0.128000
     20 H1          -0.5420     0.0020    -0.9380 ha         1 17W       0.138500
     21 H2           1.9220    -0.0030    -0.9390 ha         1 17W       0.132000
     22 H3           3.1580     0.0000     1.1940 ha         1 17W       0.131000
     23 H4           1.9320    -0.0010     3.3320 ha         1 17W       0.132000
     24 H5          -0.5320     0.0040     3.3420 ha         1 17W       0.138500
     25 H6          -2.4130     0.8990    -0.6160 h1         1 17W       0.044700
     26 H7          -2.4130    -0.8700    -0.6250 h1         1 17W       0.044700
     27 H8          -4.5080    -0.8750     0.6890 h1         1 17W       0.095200
     28 H9          -4.5080     0.8940     0.6960 h1         1 17W       0.095200
     29 H10         -7.7840    -0.1100    -2.7840 hn         1 17W       0.309700
     30 H12         -9.0800    -0.0100     2.4040 ha         1 17W       0.143000
     31 H13        -11.4860     0.0160     1.9000 ha         1 17W       0.134000
     32 H14        -12.2710     0.0310    -0.4340 ha         1 17W       0.134000
     33 H15        -10.6540     0.0290    -2.2910 ha         1 17W       0.128000
@<TRIPOS>BOND
     1    16    15 ar  
     2    16    17 ar  
     3    14    15 1   
     4    14    11 2   
     5    15    13 ar  
     6    17    18 ar  
     7     9    10 1   
     8     9     8 1   
     9    10    11 1   
    10    11    12 1   
    11    18    19 ar  
    12    13    12 1   
    13    13    19 ar  
    14     8     7 1   
    15     7     6 1   
    16     6     5 ar  
    17     6     1 ar  
    18     5     4 ar  
    19     1     2 ar  
    20     4     3 ar  
    21     2     3 ar  
    22     1    20 1   
    23     2    21 1   
    24     3    22 1   
    25     4    23 1   
    26     5    24 1   
    27     8    25 1   
    28     8    26 1   
    29     9    27 1   
    30     9    28 1   
    31    12    29 1   
    32    16    30 1   
    33    17    31 1   
    34    18    32 1   
    35    19    33 1   
@<TRIPOS>SUBSTRUCTURE
     1 17W         1 TEMP              0 ****  ****    0 ROOT
