@<TRIPOS>MOLECULE
17W
   33    35     1     0     0
SMALL
bcc


@<TRIPOS>ATOM
      1 C19         0.0770    0.0020   -0.1200 ca        1 17W     -0.178000
      2 C18         1.4720    0.0010   -0.0770 ca        1 17W     -0.097000
      3 C17         2.1430    0.0010    1.1430 ca        1 17W     -0.162000
      4 C16         1.4180    0.0010    2.3380 ca        1 17W     -0.097000
      5 C15         0.0290    0.0020    2.3210 ca        1 17W     -0.178000
      6 C14        -0.6400    0.0020    1.0810 ca        1 17W      0.123100
      7 O13        -2.0200    0.0030    1.1770 os        1 17W     -0.324900
      8 C12        -2.7290    0.0040   -0.0680 c3        1 17W      0.134400
      9 C11        -4.1960    0.0040    0.3080 c3        1 17W     -0.027300
     10 S10        -5.0840   -0.0010   -1.2250 ss        1 17W     -0.141300
     11 C8         -6.7100    0.0040   -0.7300 cc        1 17W      0.404700
     12 N9         -7.7500    0.0020   -1.6860 na        1 17W     -0.268300
     13 C2         -8.9500    0.0060   -0.9700 ca        1 17W     -0.068200
     14 N7         -7.1720    0.0090    0.5420 nd        1 17W     -0.579100
     15 C3         -8.5750    0.0100    0.4350 ca        1 17W      0.076400
     16 C4         -9.5790    0.0150    1.4140 ca        1 17W     -0.071000
     17 C5        -10.9020    0.0160    0.9960 ca        1 17W     -0.151000
     18 C6        -11.2520    0.0120   -0.3660 ca        1 17W     -0.113000
     19 C1        -10.2920    0.0070   -1.3680 ca        1 17W     -0.135000
     20 H1         -0.4360    0.0020   -1.0910 ha        1 17W      0.143000
     21 H2          2.0410    0.0010   -1.0180 ha        1 17W      0.133500
     22 H3          3.2420    0.0000    1.1680 ha        1 17W      0.134000
     23 H4          1.9490    0.0010    3.3010 ha        1 17W      0.133500
     24 H5         -0.5560    0.0020    3.2510 ha        1 17W      0.143000
     25 H6         -2.4590   -0.9150   -0.6540 h1        1 17W      0.051700
     26 H7         -2.4580    0.9240   -0.6520 h1        1 17W      0.051700
     27 H8         -4.4450   -0.8940    0.9250 h1        1 17W      0.101700
     28 H9         -4.4460    0.9060    0.9190 h1        1 17W      0.101700
     29 H10        -7.6450   -0.0010   -2.6650 hn        1 17W      0.311700
     30 H12        -9.3150    0.0180    2.4810 ha        1 17W      0.148000
     31 H13       -11.7050    0.0200    1.7490 ha        1 17W      0.133000
     32 H14       -12.3170    0.0130   -0.6420 ha        1 17W      0.132000
     33 H15       -10.5730    0.0040   -2.4290 ha        1 17W      0.136000
@<TRIPOS>BOND
     1    1    2 ar  
     2    1    6 ar  
     3    1   20 1   
     4    2    3 ar  
     5    2   21 1   
     6    3    4 ar  
     7    3   22 1   
     8    4    5 ar  
     9    4   23 1   
    10    5    6 ar  
    11    5   24 1   
    12    6    7 1   
    13    7    8 1   
    14    8    9 1   
    15    8   25 1   
    16    8   26 1   
    17    9   10 1   
    18    9   27 1   
    19    9   28 1   
    20   10   11 1   
    21   11   12 1   
    22   11   14 2   
    23   12   13 1   
    24   12   29 1   
    25   13   15 ar  
    26   13   19 ar  
    27   14   15 1   
    28   15   16 ar  
    29   16   17 ar  
    30   16   30 1   
    31   17   18 ar  
    32   17   31 1   
    33   18   19 ar  
    34   18   32 1   
    35   19   33 1   
@<TRIPOS>SUBSTRUCTURE
     1 17W         1 TEMP              0 ****  ****    0 ROOT
