@<TRIPOS>MOLECULE
17W
   33    35     1     0     0
SMALL
bcc


@<TRIPOS>ATOM
      1 C19         -1.0200    -0.0920    -0.4470 ca         1 17W      -0.176000
      2 C18          0.2720     0.3470    -0.7110 ca         1 17W      -0.096000
      3 C17          1.0910     0.8030     0.3250 ca         1 17W      -0.157000
      4 C16          0.6140     0.8190     1.6330 ca         1 17W      -0.096000
      5 C15         -0.6800     0.3850     1.9230 ca         1 17W      -0.176000
      6 C14         -1.4920    -0.0690     0.8780 ca         1 17W       0.117100
      7 O13         -2.7970    -0.5060     1.0330 os         1 17W      -0.359900
      8 C12         -3.2530    -0.6570     2.3850 c3         1 17W       0.126400
      9 C11         -4.6410    -1.2610     2.2980 c3         1 17W      -0.075300
     10 S10         -5.9490    -0.1460     2.6700 ss         1 17W      -0.084300
     11 C8          -6.3080     0.6170     1.1910 cc         1 17W       0.378700
     12 N9          -5.3670     0.8510     0.1630 na         1 17W      -0.275300
     13 C2          -6.0390     1.5480    -0.8410 ca         1 17W      -0.067200
     14 N7          -7.5300     1.1230     0.9020 nd         1 17W      -0.538100
     15 C3          -7.3990     1.7260    -0.3610 ca         1 17W       0.063400
     16 C4          -8.3270     2.4110    -1.1610 ca         1 17W      -0.067000
     17 C5          -7.9050     2.8900    -2.3900 ca         1 17W      -0.155000
     18 C6          -6.5860     2.7090    -2.8460 ca         1 17W      -0.112000
     19 C1          -5.6360     2.0400    -2.0900 ca         1 17W      -0.136000
     20 H1          -1.6740    -0.4580    -1.2510 ha         1 17W       0.143000
     21 H2           0.6500     0.3330    -1.7440 ha         1 17W       0.136500
     22 H3           2.1120     1.1470     0.1060 ha         1 17W       0.137000
     23 H4           1.2590     1.1780     2.4500 ha         1 17W       0.136500
     24 H5          -1.0420     0.4060     2.9600 ha         1 17W       0.143000
     25 H6          -3.2720     0.3480     2.8850 h1         1 17W       0.058200
     26 H7          -2.5530    -1.3410     2.9350 h1         1 17W       0.058200
     27 H8          -4.7390    -2.0540     3.0860 h1         1 17W       0.102200
     28 H9          -4.7770    -1.7550     1.3030 h1         1 17W       0.102200
     29 H10         -4.4250     0.5520     0.1460 hn         1 17W       0.324700
     30 H12         -9.3590     2.5570    -0.8110 ha         1 17W       0.148000
     31 H13         -8.6170     3.4300    -3.0330 ha         1 17W       0.132000
     32 H14         -6.3040     3.1110    -3.8310 ha         1 17W       0.131000
     33 H15         -4.6090     1.9030    -2.4510 ha         1 17W       0.135000
@<TRIPOS>BOND
     1     1     2 ar  
     2     1     6 ar  
     3     1    20 1   
     4     2     3 ar  
     5     2    21 1   
     6     3     4 ar  
     7     3    22 1   
     8     4     5 ar  
     9     4    23 1   
    10     5     6 ar  
    11     5    24 1   
    12     6     7 1   
    13     7     8 1   
    14     8     9 1   
    15     8    25 1   
    16     8    26 1   
    17     9    10 1   
    18     9    27 1   
    19     9    28 1   
    20    10    11 1   
    21    11    12 1   
    22    11    14 2   
    23    12    13 1   
    24    12    29 1   
    25    13    15 ar  
    26    13    19 ar  
    27    14    15 1   
    28    15    16 ar  
    29    16    17 ar  
    30    16    30 1   
    31    17    18 ar  
    32    17    31 1   
    33    18    19 ar  
    34    18    32 1   
    35    19    33 1   
@<TRIPOS>SUBSTRUCTURE
     1 17W         1 TEMP              0 ****  ****    0 ROOT
