@<TRIPOS>MOLECULE
17X
   90    97     1     0     0
SMALL
bcc


@<TRIPOS>ATOM
      1 CAI         -0.1080    -0.2680    -0.0590 ca         1 17X      -0.118000
      2 CAJ          1.2510    -0.3110     0.2460 ca         1 17X      -0.130000
      3 CAK          1.6690    -0.3500     1.5770 ca         1 17X      -0.122000
      4 CAL          0.7240    -0.3420     2.6020 ca         1 17X      -0.130000
      5 CAM         -0.6370    -0.2920     2.3000 ca         1 17X      -0.118000
      6 CAH         -1.0590    -0.2590     0.9670 ca         1 17X      -0.122300
      7 CAG         -2.5300    -0.2680     0.6530 c3         1 17X       0.093600
      8 NAD         -2.9890     0.7820    -0.2070 na         1 17X      -0.150300
      9 CAC         -2.9990     0.7610    -1.6080 ca         1 17X      -0.073200
     10 CAF         -2.6920    -0.2380    -2.5410 ca         1 17X      -0.136000
     11 CAE         -2.8410     0.0720    -3.8840 ca         1 17X      -0.116000
     12 CAX         -3.2830     1.3380    -4.3070 ca         1 17X      -0.152000
     13 CAW         -3.5950     2.3420    -3.4040 ca         1 17X      -0.073000
     14 CAV         -3.4570     2.0710    -2.0340 ca         1 17X       0.074400
     15 NAY         -3.6930     2.8790    -0.9100 nc         1 17X      -0.591100
     16 CAB         -3.4040     2.1010     0.1690 cd         1 17X       0.574700
     17 NAA         -3.5400     2.4490     1.5520 nh         1 17X      -0.668600
     18 CAR         -2.2830     2.9280     2.1250 c3         1 17X       0.170800
     19 CAQ         -2.4040     3.2310     3.6170 c3         1 17X      -0.076400
     20 CAN         -4.6670     3.3450     1.8050 c3         1 17X       0.170800
     21 CAO         -4.8410     3.6370     3.2940 c3         1 17X      -0.076400
     22 CAP         -3.5520     4.1960     3.8820 c3         1 17X      -0.145700
     23 CAS         -3.7110     4.3990     5.3650 c          1 17X       0.630100
     24 OAT         -4.3840     3.7090     6.1310 o          1 17X      -0.484000
     25 OAU         -3.0850     5.4250     6.0330 os         1 17X      -0.418900
     26 CBP         -2.2600     6.3280     5.2980 c3         1 17X       0.109400
     27 CBO         -1.4750     7.1430     6.3620 c3         1 17X       0.056000
     28 CBQ         -1.1280     8.5180     5.7370 c3         1 17X      -0.070700
     29 CBR          0.0500     9.2070     6.4080 c3         1 17X      -0.076400
     30 CBS          0.2880    10.5920     5.8060 c3         1 17X       0.163300
     31 NBV         -0.8940    11.4310     5.8040 n7         1 17X      -0.821200
     32 CBT         -2.0550    10.7940     5.2150 c3         1 17X       0.163300
     33 CBU         -2.3510     9.4230     5.8200 c3         1 17X      -0.076400
     34 NBH         -0.3500     6.4110     6.8830 na         1 17X      -0.160300
     35 CBD          0.7250     5.8920     6.1410 ca         1 17X      -0.078200
     36 CBE          1.1660     6.0950     4.8280 ca         1 17X      -0.144000
     37 CAZ          2.3110     5.4260     4.4210 ca         1 17X      -0.116000
     38 CBA          3.0180     4.5740     5.2880 ca         1 17X      -0.155000
     39 CBB          2.6050     4.3590     6.5950 ca         1 17X      -0.069000
     40 CBC          1.4490     5.0120     7.0430 ca         1 17X       0.068400
     41 NBF          0.8040     4.9880     8.2940 nc         1 17X      -0.557100
     42 CBG         -0.2620     5.8070     8.1740 cd         1 17X       0.489400
     43 CBI         -1.2230     6.0810     9.2490 ca         1 17X      -0.118900
     44 CBJ         -1.8820     5.0100     9.8650 ca         1 17X      -0.094000
     45 CBK         -2.7790     5.2560    10.9050 ca         1 17X      -0.134500
     46 CBL         -3.0140     6.5620    11.3340 ca         1 17X      -0.113000
     47 CBM         -2.3510     7.6280    10.7250 ca         1 17X      -0.134500
     48 CBN         -1.4550     7.3910     9.6830 ca         1 17X      -0.094000
     49 H1          -0.4380    -0.2360    -1.1100 ha         1 17X       0.140000
     50 H2           1.9940    -0.3150    -0.5650 ha         1 17X       0.136500
     51 H3           2.7410    -0.3880     1.8170 ha         1 17X       0.134000
     52 H4           1.0500    -0.3730     3.6520 ha         1 17X       0.136500
     53 H5          -1.3790    -0.2820     3.1140 ha         1 17X       0.140000
     54 H6          -3.1200    -0.2150     1.6150 h1         1 17X       0.075700
     55 H7          -2.7710    -1.2500     0.1470 h1         1 17X       0.075700
     56 H8          -2.3510    -1.2310    -2.2190 ha         1 17X       0.136000
     57 H9          -2.6100    -0.6920    -4.6420 ha         1 17X       0.132000
     58 H10         -3.3840     1.5320    -5.3860 ha         1 17X       0.133000
     59 H11         -3.9430     3.3280    -3.7410 ha         1 17X       0.146000
     60 H12         -1.5140     2.1140     1.9830 h1         1 17X       0.055200
     61 H13         -1.9160     3.8540     1.5950 h1         1 17X       0.055200
     62 H14         -1.4340     3.6710     3.9660 hc         1 17X       0.067700
     63 H15         -2.5780     2.2820     4.1890 hc         1 17X       0.067700
     64 H16         -4.5530     4.3260     1.2590 h1         1 17X       0.055200
     65 H17         -5.5960     2.8380     1.4190 h1         1 17X       0.055200
     66 H18         -5.1310     2.7070     3.8500 hc         1 17X       0.067700
     67 H19         -5.6710     4.3800     3.4140 hc         1 17X       0.067700
     68 H20         -3.3330     5.1810     3.3830 hc         1 17X       0.066700
     69 H21         -1.5640     5.7720     4.6170 h1         1 17X       0.052700
     70 H22         -2.9180     7.0100     4.7000 h1         1 17X       0.052700
     71 H23         -2.1740     7.3180     7.2400 h1         1 17X       0.103700
     72 H24         -0.8660     8.3580     4.6520 hc         1 17X       0.048700
     73 H25          0.9870     8.6080     6.2660 hc         1 17X       0.055700
     74 H26         -0.1420     9.2990     7.5080 hc         1 17X       0.055700
     75 H27          0.7090    10.4540     4.7660 h1         1 17X       0.030200
     76 H28          1.0710    11.1220     6.4200 h1         1 17X       0.030200
     77 H29         -0.7020    12.2960     5.3360 hn         1 17X       0.365800
     78 H31         -2.9370    11.4700     5.3990 h1         1 17X       0.030200
     79 H32         -1.9500    10.6690     4.0960 h1         1 17X       0.030200
     80 H33         -3.2150     8.9740     5.2680 hc         1 17X       0.055700
     81 H34         -2.6570     9.5430     6.8930 hc         1 17X       0.055700
     82 H35          0.6280     6.7670     4.1460 ha         1 17X       0.131000
     83 H36          2.6800     5.5660     3.3940 ha         1 17X       0.131000
     84 H37          3.9220     4.0700     4.9160 ha         1 17X       0.133000
     85 H38          3.1650     3.6970     7.2700 ha         1 17X       0.149000
     86 H39         -1.6920     3.9790     9.5270 ha         1 17X       0.145000
     87 H40         -3.3010     4.4150    11.3840 ha         1 17X       0.137000
     88 H41         -3.7220     6.7530    12.1540 ha         1 17X       0.134000
     89 H42         -2.5310     8.6570    11.0670 ha         1 17X       0.137000
     90 H43         -0.9230     8.2320     9.2120 ha         1 17X       0.145000
@<TRIPOS>BOND
     1     1     2 ar  
     2     1     6 ar  
     3     1    49 1   
     4     2     3 ar  
     5     2    50 1   
     6     3     4 ar  
     7     3    51 1   
     8     4     5 ar  
     9     4    52 1   
    10     5     6 ar  
    11     5    53 1   
    12     6     7 1   
    13     7     8 1   
    14     7    54 1   
    15     7    55 1   
    16     8     9 1   
    17     8    16 1   
    18     9    10 ar  
    19     9    14 ar  
    20    10    11 ar  
    21    10    56 1   
    22    11    12 ar  
    23    11    57 1   
    24    12    13 ar  
    25    12    58 1   
    26    13    14 ar  
    27    13    59 1   
    28    14    15 1   
    29    15    16 2   
    30    16    17 1   
    31    17    18 1   
    32    17    20 1   
    33    18    19 1   
    34    18    60 1   
    35    18    61 1   
    36    19    22 1   
    37    19    62 1   
    38    19    63 1   
    39    20    21 1   
    40    20    64 1   
    41    20    65 1   
    42    21    22 1   
    43    21    66 1   
    44    21    67 1   
    45    22    23 1   
    46    22    68 1   
    47    23    24 2   
    48    23    25 1   
    49    25    26 1   
    50    26    27 1   
    51    26    69 1   
    52    26    70 1   
    53    27    28 1   
    54    27    34 1   
    55    27    71 1   
    56    28    29 1   
    57    28    33 1   
    58    28    72 1   
    59    29    30 1   
    60    29    73 1   
    61    29    74 1   
    62    30    31 1   
    63    30    75 1   
    64    30    76 1   
    65    31    32 1   
    66    31    77 1   
    67    32    33 1   
    68    32    78 1   
    69    32    79 1   
    70    33    80 1   
    71    33    81 1   
    72    34    35 1   
    73    34    42 1   
    74    35    36 ar  
    75    35    40 ar  
    76    36    37 ar  
    77    36    82 1   
    78    37    38 ar  
    79    37    83 1   
    80    38    39 ar  
    81    38    84 1   
    82    39    40 ar  
    83    39    85 1   
    84    40    41 1   
    85    41    42 2   
    86    42    43 1   
    87    43    44 ar  
    88    43    48 ar  
    89    44    45 ar  
    90    44    86 1   
    91    45    46 ar  
    92    45    87 1   
    93    46    47 ar  
    94    46    88 1   
    95    47    48 ar  
    96    47    89 1   
    97    48    90 1   
@<TRIPOS>SUBSTRUCTURE
     1 17X         1 TEMP              0 ****  ****    0 ROOT
