@<TRIPOS>MOLECULE
molecule
   90    97     1     0     0
SMALL
bcc


@<TRIPOS>ATOM
      1 CAI          0.0000     0.0000     0.0000 ca         1 17X      -0.107000
      2 CAJ          1.3820     0.0000     0.0000 ca         1 17X      -0.130500
      3 CAK          2.0730     0.0000     1.1970 ca         1 17X      -0.117000
      4 CAL          1.3820     0.0000     2.3950 ca         1 17X      -0.130500
      5 CAM         -0.0010     0.0010     2.3950 ca         1 17X      -0.107000
      6 CAH         -0.6910    -0.0010     1.1970 ca         1 17X      -0.120300
      7 CAG         -2.1980    -0.0010     1.1970 c3         1 17X       0.103600
      8 NAD         -2.6860    -1.3830     1.1980 na         1 17X      -0.134300
      9 CAC         -2.9390    -2.1640     2.3120 ca         1 17X      -0.084200
     10 CAF         -2.8360    -1.9520     3.6790 ca         1 17X      -0.126000
     11 CAE         -3.1750    -2.9600     4.5590 ca         1 17X      -0.116000
     12 CAX         -3.6170    -4.1860     4.0840 ca         1 17X      -0.146000
     13 CAW         -3.7250    -4.4150     2.7310 ca         1 17X      -0.074000
     14 CAV         -3.3870    -3.4050     1.8270 ca         1 17X       0.098400
     15 NAY         -3.3870    -3.3260     0.4710 nc         1 17X      -0.636100
     16 CAB         -2.9820    -2.1380     0.0980 cd         1 17X       0.577700
     17 NAA         -2.8610    -1.7150    -1.2080 nh         1 17X      -0.672600
     18 CAR         -1.9890    -2.6150    -1.9740 c3         1 17X       0.174300
     19 CAQ         -1.7620    -2.0370    -3.3740 c3         1 17X      -0.072900
     20 CAN         -4.1790    -1.5860    -1.8420 c3         1 17X       0.174300
     21 CAO         -4.0180    -0.9780    -3.2380 c3         1 17X      -0.072900
     22 CAP         -3.1120    -1.8810    -4.0800 c3         1 17X      -0.114700
     23 CAS         -2.9000    -1.2570    -5.4360 c          1 17X       0.634100
     24 OAT         -3.4210    -0.1990    -5.7030 o          1 17X      -0.548000
     25 OAU         -2.1340    -1.8760    -6.3470 os         1 17X      -0.421900
     26 CBP         -1.9740    -1.2180    -7.6320 c3         1 17X       0.125400
     27 CBO         -1.0740    -2.0670    -8.5320 c3         1 17X       0.063000
     28 CBQ         -1.6430    -3.4840    -8.6310 c3         1 17X      -0.093700
     29 CBR         -0.8190    -4.2970    -9.6320 c3         1 17X      -0.086900
     30 CBS         -1.4280    -5.6940    -9.7720 c3         1 17X       0.159800
     31 NBV         -2.8180    -5.5790   -10.2330 n7         1 17X      -0.819200
     32 CBT         -3.6400    -4.8430    -9.2640 c3         1 17X       0.159800
     33 CBU         -3.0960    -3.4210    -9.1090 c3         1 17X      -0.086900
     34 NBH          0.2750    -2.1200    -7.9630 na         1 17X      -0.142300
     35 CBD          0.9070    -3.2380    -7.4550 ca         1 17X      -0.082200
     36 CBE          0.5410    -4.5700    -7.3120 ca         1 17X      -0.147000
     37 CAZ          1.4260    -5.4650    -6.7490 ca         1 17X      -0.121000
     38 CBA          2.6790    -5.0430    -6.3250 ca         1 17X      -0.147000
     39 CBB          3.0570    -3.7370    -6.4580 ca         1 17X      -0.071000
     40 CBC          2.1760    -2.8110    -7.0260 ca         1 17X       0.090400
     41 NBF          2.2600    -1.4840    -7.2850 nd         1 17X      -0.592100
     42 CBG          1.1460    -1.0720    -7.8410 cc         1 17X       0.472400
     43 CBI          0.8720     0.3170    -8.2690 ca         1 17X      -0.103900
     44 CBJ          1.4300     1.3880    -7.5700 ca         1 17X      -0.106500
     45 CBK          1.1710     2.6820    -7.9750 ca         1 17X      -0.129000
     46 CBL          0.3600     2.9170    -9.0700 ca         1 17X      -0.115000
     47 CBM         -0.1960     1.8600    -9.7670 ca         1 17X      -0.129000
     48 CBN          0.0590     0.5620    -9.3760 ca         1 17X      -0.106500
     49 H1          -0.5410    -0.0010    -0.9380 ha         1 17X       0.135500
     50 H2           1.9240     0.0000    -0.9380 ha         1 17X       0.133000
     51 H3           3.1560    -0.0000     1.1970 ha         1 17X       0.131000
     52 H4           1.9240     0.0010     3.3330 ha         1 17X       0.133000
     53 H5          -0.5430     0.0000     3.3330 ha         1 17X       0.135500
     54 H6          -2.5600     0.5100     2.0810 h1         1 17X       0.070700
     55 H7          -2.5600     0.5090     0.3120 h1         1 17X       0.070700
     56 H8          -2.4910    -0.9960     4.0550 ha         1 17X       0.124000
     57 H9          -3.0950    -2.7930     5.6260 ha         1 17X       0.131000
     58 H10         -3.8800    -4.9700     4.7840 ha         1 17X       0.132000
     59 H11         -4.0720    -5.3750     2.3680 ha         1 17X       0.140000
     60 H12         -2.4590    -3.5870    -2.0580 h1         1 17X       0.055200
     61 H13         -1.0370    -2.7110    -1.4660 h1         1 17X       0.055200
     62 H14         -1.1320    -2.7100    -3.9430 hc         1 17X       0.065700
     63 H15         -1.2830    -1.0690    -3.2910 hc         1 17X       0.065700
     64 H16         -4.8060    -0.9410    -1.2390 h1         1 17X       0.055200
     65 H17         -4.6340    -2.5650    -1.9270 h1         1 17X       0.055200
     66 H18         -4.9890    -0.9000    -3.7110 hc         1 17X       0.065700
     67 H19         -3.5700     0.0050    -3.1540 hc         1 17X       0.065700
     68 H20         -3.5750    -2.8530    -4.1920 hc         1 17X       0.078700
     69 H21         -2.9440    -1.1000    -8.1000 h1         1 17X       0.067200
     70 H22         -1.5220    -0.2450    -7.4850 h1         1 17X       0.067200
     71 H23         -1.0320    -1.6250    -9.5200 h1         1 17X       0.084700
     72 H24         -1.6040    -3.9630    -7.6600 hc         1 17X       0.084700
     73 H25          0.2000    -4.3820    -9.2750 hc         1 17X       0.059200
     74 H26         -0.8300    -3.8010   -10.5950 hc         1 17X       0.059200
     75 H27         -0.8560    -6.2650   -10.4940 h1         1 17X       0.034700
     76 H28         -1.4080    -6.1930    -8.8110 h1         1 17X       0.034700
     77 H29         -3.2010    -6.4930   -10.3680 hn         1 17X       0.355800
     78 H31         -4.6620    -4.8000    -9.6190 h1         1 17X       0.034700
     79 H32         -3.6050    -5.3480    -8.3060 h1         1 17X       0.034700
     80 H33         -3.6920    -2.8850    -8.3800 hc         1 17X       0.059200
     81 H34         -3.1390    -2.9120   -10.0640 hc         1 17X       0.059200
     82 H35         -0.4350    -4.9050    -7.6420 ha         1 17X       0.149000
     83 H36          1.1420    -6.5040    -6.6370 ha         1 17X       0.130000
     84 H37          3.3640    -5.7570    -5.8840 ha         1 17X       0.132000
     85 H38          4.0370    -3.4190    -6.1230 ha         1 17X       0.141000
     86 H39          2.0660     1.2050    -6.7120 ha         1 17X       0.143000
     87 H40          1.6030     3.5150    -7.4330 ha         1 17X       0.135500
     88 H41          0.1580     3.9350    -9.3820 ha         1 17X       0.133000
     89 H42         -0.8290     2.0520   -10.6250 ha         1 17X       0.135500
     90 H43         -0.3770    -0.2660    -9.9230 ha         1 17X       0.143000
@<TRIPOS>BOND
     1    13    12 ar  
     2    13    14 ar  
     3    12    11 ar  
     4    15    14 1   
     5    15    16 2   
     6    14     9 ar  
     7    20    21 1   
     8    20    17 1   
     9    11    10 ar  
    10    21    22 1   
    11    16    17 1   
    12    16     8 1   
    13    17    18 1   
    14    32    33 1   
    15    32    31 1   
    16     9    10 ar  
    17     9     8 1   
    18    33    28 1   
    19    22    23 1   
    20    22    19 1   
    21     8     7 1   
    22    25    26 1   
    23    25    23 1   
    24    18    19 1   
    25    26    27 1   
    26    31    30 1   
    27    23    24 2   
    28    28    27 1   
    29    28    29 1   
    30    30    29 1   
    31    27    34 1   
    32     7     6 1   
    33     1     6 ar  
    34     1     2 ar  
    35    36    37 ar  
    36    36    35 ar  
    37    37    38 ar  
    38     6     5 ar  
    39     2     3 ar  
    40    34    35 1   
    41    34    42 1   
    42    35    40 ar  
    43    38    39 ar  
    44     5     4 ar  
    45     3     4 ar  
    46    40    39 ar  
    47    40    41 1   
    48    42    43 1   
    49    42    41 2   
    50    48    43 ar  
    51    48    47 ar  
    52    43    44 ar  
    53    47    46 ar  
    54    44    45 ar  
    55    46    45 ar  
    56     1    49 1   
    57     2    50 1   
    58     3    51 1   
    59     4    52 1   
    60     5    53 1   
    61     7    54 1   
    62     7    55 1   
    63    10    56 1   
    64    11    57 1   
    65    12    58 1   
    66    13    59 1   
    67    18    60 1   
    68    18    61 1   
    69    19    62 1   
    70    19    63 1   
    71    20    64 1   
    72    20    65 1   
    73    21    66 1   
    74    21    67 1   
    75    22    68 1   
    76    26    69 1   
    77    26    70 1   
    78    27    71 1   
    79    28    72 1   
    80    29    73 1   
    81    29    74 1   
    82    30    75 1   
    83    30    76 1   
    84    31    77 1   
    85    32    78 1   
    86    32    79 1   
    87    33    80 1   
    88    33    81 1   
    89    36    82 1   
    90    37    83 1   
    91    38    84 1   
    92    39    85 1   
    93    44    86 1   
    94    45    87 1   
    95    46    88 1   
    96    47    89 1   
    97    48    90 1   
@<TRIPOS>SUBSTRUCTURE
     1 17X         1 TEMP              0 ****  ****    0 ROOT
