@<TRIPOS>MOLECULE
17Y
   17    17     1     0     0
SMALL
bcc


@<TRIPOS>ATOM
      1 OAA         -0.0590    -0.1860    -0.0160 oh         1 17Y      -0.601300
      2 CAF          1.3390    -0.0110    -0.1390 c3         1 17Y       0.106600
      3 CAD          2.0140     0.3110     1.1960 c3         1 17Y      -0.095900
      4 CAC          3.2150    -0.6120     1.3370 c3         1 17Y      -0.081400
      5 CAE          3.0510    -1.7440     0.3350 c3         1 17Y      -0.095900
      6 CAG          2.0070    -1.2950    -0.6890 c3         1 17Y       0.106600
      7 OAB          1.0560    -2.3390    -0.8250 oh         1 17Y      -0.601300
      8 H1          -0.2060    -0.9270     0.5890 ho         1 17Y       0.412000
      9 H2           1.4440     0.8390    -0.8660 h1         1 17Y       0.060700
     10 H3           1.2900     0.1500     2.0360 hc         1 17Y       0.056200
     11 H4           2.3280     1.3830     1.2260 hc         1 17Y       0.056200
     12 H5           3.2880    -1.0130     2.3780 hc         1 17Y       0.045700
     13 H6           4.1600    -0.0480     1.1300 hc         1 17Y       0.045700
     14 H7           4.0180    -1.9770    -0.1730 hc         1 17Y       0.056200
     15 H8           2.6990    -2.6790     0.8420 hc         1 17Y       0.056200
     16 H9           2.4780    -1.0890    -1.6880 h1         1 17Y       0.060700
     17 H10          0.3590    -2.0060    -1.4060 ho         1 17Y       0.412000
@<TRIPOS>BOND
     1     1     2 1   
     2     1     8 1   
     3     2     3 1   
     4     2     6 1   
     5     2     9 1   
     6     3     4 1   
     7     3    10 1   
     8     3    11 1   
     9     4     5 1   
    10     4    12 1   
    11     4    13 1   
    12     5     6 1   
    13     5    14 1   
    14     5    15 1   
    15     6     7 1   
    16     6    16 1   
    17     7    17 1   
@<TRIPOS>SUBSTRUCTURE
     1 17Y         1 TEMP              0 ****  ****    0 ROOT
