@<TRIPOS>MOLECULE
molecule
   17    17     1     0     0
SMALL
bcc


@<TRIPOS>ATOM
      1 OAA          0.0000     0.0000     0.0000 oh         1 17Y      -0.578800
      2 CAF          1.4290     0.0000     0.0000 c3         1 17Y       0.138100
      3 CAD          1.9720     0.0000     1.4510 c3         1 17Y      -0.100400
      4 CAC          3.3900    -0.6000     1.2860 c3         1 17Y      -0.083400
      5 CAE          3.2160    -1.6940     0.2120 c3         1 17Y      -0.100400
      6 CAG          1.9690    -1.3130    -0.6060 c3         1 17Y       0.138100
      7 OAB          0.9820    -2.3420    -0.5020 oh         1 17Y      -0.578800
      8 H1          -0.3140     0.8190    -0.3450 ho         1 17Y       0.394500
      9 H2           1.8140     0.8530    -0.5460 h1         1 17Y       0.031700
     10 H3           1.3620    -0.6300     2.0870 hc         1 17Y       0.055950
     11 H4           2.0270     1.0100     1.8380 hc         1 17Y       0.055950
     12 H5           3.7260    -1.0370     2.2190 hc         1 17Y       0.044700
     13 H6           4.0840     0.1580     0.9430 hc         1 17Y       0.044700
     14 H7           3.0660    -2.6570     0.6860 hc         1 17Y       0.055950
     15 H8           4.0860    -1.7220    -0.4320 hc         1 17Y       0.055950
     16 H9           2.2410    -1.1560    -1.6420 h1         1 17Y       0.031700
     17 H10          0.9190    -2.8000    -1.3240 ho         1 17Y       0.394500
@<TRIPOS>BOND
     1     2     1 1   
     2     2     6 1   
     3     2     3 1   
     4     6     5 1   
     5     6     7 1   
     6     5     4 1   
     7     3     4 1   
     8     1     8 1   
     9     2     9 1   
    10     3    10 1   
    11     3    11 1   
    12     4    12 1   
    13     4    13 1   
    14     5    14 1   
    15     5    15 1   
    16     6    16 1   
    17     7    17 1   
@<TRIPOS>SUBSTRUCTURE
     1 17Y         1 TEMP              0 ****  ****    0 ROOT
