@<TRIPOS>MOLECULE
17Z
   23    24     1     0     0
SMALL
bcc


@<TRIPOS>ATOM
      1 C8           0.0390    -0.1630     0.1010 ca         1 17Z      -0.203000
      2 C13          1.4190    -0.1550     0.0970 ca         1 17Z       0.120100
      3 O20          2.1610    -0.2520    -1.0610 oh         1 17Z      -0.499100
      4 C12          2.1700    -0.0470     1.3100 ca         1 17Z      -0.037000
      5 C17          3.5900    -0.0420     1.3140 ca         1 17Z      -0.090000
      6 C16          4.2820     0.0460     2.4970 ca         1 17Z      -0.139000
      7 C15          3.5830     0.1270     3.7230 ca         1 17Z      -0.111000
      8 C14          2.2090     0.1270     3.7430 ca         1 17Z      -0.136000
      9 C11          1.4630     0.0500     2.5350 ca         1 17Z      -0.047000
     10 C10          0.0330     0.0610     2.5080 ca         1 17Z       0.080100
     11 O19         -0.7070     0.1300     3.6730 oh         1 17Z      -0.502100
     12 C9          -0.6740    -0.0460     1.3180 ca         1 17Z      -0.059300
     13 C18         -2.1540    -0.0600     1.2980 c3         1 17Z      -0.046800
     14 H1          -0.5270    -0.2530    -0.8380 ha         1 17Z       0.137000
     15 H2           1.5430    -0.3230    -1.8030 ho         1 17Z       0.421000
     16 H3           4.1140    -0.1130     0.3470 ha         1 17Z       0.152000
     17 H4           5.3820     0.0510     2.5050 ha         1 17Z       0.136000
     18 H5           4.1530     0.1840     4.6620 ha         1 17Z       0.134000
     19 H6           1.6750     0.1690     4.7040 ha         1 17Z       0.128000
     20 H7          -0.2190     0.6870     4.2960 ho         1 17Z       0.416000
     21 H8          -2.5650     0.4830     2.1860 hc         1 17Z       0.049033
     22 H9          -2.5240    -1.1160     1.3360 hc         1 17Z       0.049033
     23 H10         -2.5450     0.4190     0.3670 hc         1 17Z       0.049033
@<TRIPOS>BOND
     1     1     2 ar  
     2     1    12 ar  
     3     1    14 1   
     4     2     3 1   
     5     2     4 ar  
     6     3    15 1   
     7     4     5 ar  
     8     4     9 ar  
     9     5     6 ar  
    10     5    16 1   
    11     6     7 ar  
    12     6    17 1   
    13     7     8 ar  
    14     7    18 1   
    15     8     9 ar  
    16     8    19 1   
    17     9    10 ar  
    18    10    11 1   
    19    10    12 ar  
    20    11    20 1   
    21    12    13 1   
    22    13    21 1   
    23    13    22 1   
    24    13    23 1   
@<TRIPOS>SUBSTRUCTURE
     1 17Z         1 TEMP              0 ****  ****    0 ROOT
