@<TRIPOS>MOLECULE
17Z
   23    24     1     0     0
SMALL
bcc


@<TRIPOS>ATOM
      1 C8         -0.0170   -0.0080   -0.0400 ca        1 17Z     -0.203000
      2 C13         1.3620   -0.0130    0.0030 ca        1 17Z      0.120100
      3 O20         2.1430    0.0180   -1.1320 oh        1 17Z     -0.499100
      4 C12         2.0710   -0.0500    1.2450 ca        1 17Z     -0.037000
      5 C17         3.4900   -0.0520    1.2980 ca        1 17Z     -0.090000
      6 C16         4.1410   -0.0720    2.5070 ca        1 17Z     -0.139000
      7 C15         3.4000   -0.0830    3.7120 ca        1 17Z     -0.111000
      8 C14         2.0260   -0.0850    3.6840 ca        1 17Z     -0.136000
      9 C11         1.3230   -0.0780    2.4490 ca        1 17Z     -0.047000
     10 C10        -0.1050   -0.0930    2.3740 ca        1 17Z      0.080100
     11 O19        -0.8850   -0.0970    3.5150 oh        1 17Z     -0.502100
     12 C9         -0.7710   -0.0560    1.1560 ca        1 17Z     -0.059300
     13 C18        -2.2500   -0.0450    1.0850 c3        1 17Z     -0.046800
     14 H1         -0.5500    0.0270   -1.0020 ha        1 17Z      0.137000
     15 H2          1.5510    0.0460   -1.8980 ho        1 17Z      0.421000
     16 H3          4.0460   -0.0370    0.3480 ha        1 17Z      0.152000
     17 H4          5.2400   -0.0740    2.5530 ha        1 17Z      0.136000
     18 H5          3.9380   -0.0860    4.6710 ha        1 17Z      0.134000
     19 H6          1.4600   -0.0720    4.6280 ha        1 17Z      0.128000
     20 H7         -0.4190   -0.6160    4.1860 ho        1 17Z      0.416000
     21 H8         -2.6210    1.0100    1.0510 hc        1 17Z      0.049033
     22 H9         -2.6910   -0.5390    1.9870 hc        1 17Z      0.049033
     23 H10        -2.6090   -0.5770    0.1700 hc        1 17Z      0.049033
@<TRIPOS>BOND
     1    1    2 ar  
     2    1   12 ar  
     3    1   14 1   
     4    2    3 1   
     5    2    4 ar  
     6    3   15 1   
     7    4    5 ar  
     8    4    9 ar  
     9    5    6 ar  
    10    5   16 1   
    11    6    7 ar  
    12    6   17 1   
    13    7    8 ar  
    14    7   18 1   
    15    8    9 ar  
    16    8   19 1   
    17    9   10 ar  
    18   10   11 1   
    19   10   12 ar  
    20   11   20 1   
    21   12   13 1   
    22   13   21 1   
    23   13   22 1   
    24   13   23 1   
@<TRIPOS>SUBSTRUCTURE
     1 17Z         1 TEMP              0 ****  ****    0 ROOT
