@<TRIPOS>MOLECULE
molecule
   23    24     1     0     0
SMALL
bcc


@<TRIPOS>ATOM
      1 C8           0.0000     0.0000     0.0000 ca         1 17Z      -0.167000
      2 C13          1.3660     0.0000     0.0000 ca         1 17Z       0.120100
      3 O20          2.0490    -0.0000    -1.1760 oh         1 17Z      -0.515100
      4 C12          2.0630     0.0000     1.2240 ca         1 17Z      -0.046000
      5 C17          3.4670    -0.0000     1.2640 ca         1 17Z      -0.101000
      6 C16          4.1070     0.0000     2.4660 ca         1 17Z      -0.132000
      7 C15          3.3900     0.0000     3.6600 ca         1 17Z      -0.119000
      8 C14          2.0290     0.0000     3.6600 ca         1 17Z      -0.117000
      9 C11          1.3340     0.0000     2.4390 ca         1 17Z      -0.041000
     10 C10         -0.0740     0.0000     2.3990 ca         1 17Z       0.095100
     11 O19         -0.7910    -0.0000     3.5540 oh         1 17Z      -0.517100
     12 C9          -0.7160     0.0060     1.1940 ca         1 17Z      -0.083300
     13 C18         -2.2230     0.0060     1.1540 c3         1 17Z      -0.042800
     14 H1          -0.5340     0.0050    -0.9430 ha         1 17Z       0.139000
     15 H2           1.8690    -0.7980    -1.6440 ho         1 17Z       0.422000
     16 H3           4.0380    -0.0000     0.3440 ha         1 17Z       0.146000
     17 H4           5.1900     0.0000     2.4930 ha         1 17Z       0.130000
     18 H5           3.9240     0.0000     4.6030 ha         1 17Z       0.130000
     19 H6           1.4840     0.0000     4.5970 ha         1 17Z       0.142000
     20 H7          -0.8790     0.8840     3.8700 ho         1 17Z       0.418000
     21 H8          -2.5580    -0.1300     0.1330 hc         1 17Z       0.046700
     22 H9          -2.5950     0.9500     1.5340 hc         1 17Z       0.046700
     23 H10         -2.6000    -0.8040     1.7680 hc         1 17Z       0.046700
@<TRIPOS>BOND
     1    11    10 1
     2     8     7 ar
     3     8     9 ar
     4     7     6 ar
     5    10     9 ar
     6    10    12 ar
     7     9     4 ar
     8     6     5 ar
     9    13    12 1
    10    12     1 ar
    11     4     5 ar
    12     4     2 ar
    13     1     2 ar
    14     2     3 1
    15     1    14 1
    16     3    15 1
    17     5    16 1
    18     6    17 1
    19     7    18 1
    20     8    19 1
    21    11    20 1
    22    13    21 1
    23    13    22 1
    24    13    23 1
@<TRIPOS>SUBSTRUCTURE
     1 17Z         1 TEMP              0 ****  ****    0 ROOT
