@<TRIPOS>MOLECULE
molecule
   59    62     1     0     0
SMALL
bcc


@<TRIPOS>ATOM
      1 O1           0.0000     0.0000     0.0000 o          1 180      -0.820800
      2 C1           1.3430     0.0000     0.0000 c          1 180       0.886600
      3 O2           1.9450    -0.0000    -1.0470 o          1 180      -0.820800
      4 C2           2.0950     0.0000     1.3050 c3         1 180       0.121500
      5 C3           2.3510     1.4430     1.7460 c3         1 180       0.111000
      6 N1           2.9940     1.4440     3.0620 ns         1 180      -0.568900
      7 C4           3.2220     2.6090     3.7000 c          1 180       0.704700
      8 O3           2.9830     3.6650     3.1440 o          1 180      -0.602100
      9 C5           3.7570     2.6050     5.0630 cc         1 180      -0.064700
     10 C6           3.9700     3.6590     5.8970 cd         1 180      -0.080000
     11 C7           4.4970     3.4580     7.1970 cd         1 180      -0.139000
     12 C8           4.8320     4.3580     8.3160 cd         1 180      -0.122000
     13 C9           5.3350     3.8610     9.4500 cc         1 180      -0.018400
     14 C10          5.7390     4.6030    10.6980 c3         1 180       0.009900
     15 C11          4.5410     4.7000    11.6440 c3         1 180      -0.075400
     16 C12          4.9510     5.4530    12.9110 c3         1 180      -0.074700
     17 C13          3.7530     5.5520    13.8590 c3         1 180      -0.073400
     18 C14          4.2010     6.2040    15.1690 c3         1 180       0.147800
     19 N2           5.2280     5.3780    15.8090 n7         1 180      -0.800200
     20 C15          6.4060     5.3920    14.9370 c3         1 180       0.147800
     21 C16          6.0800     4.6960    13.6140 c3         1 180      -0.073400
     22 S1           5.4100     2.1090     9.1290 ss         1 180      -0.130800
     23 C17          4.7680     2.1100     7.4910 cc         1 180       0.076800
     24 S2           4.3020     1.2190     6.0450 ss         1 180      -0.092800
     25 N3           1.3050    -0.6910     2.3260 n7         1 180      -0.880100
     26 S3           1.5660    -2.2960     2.6290 sy         1 180       1.420200
     27 O4           0.6840    -2.6370     3.6900 o          1 180      -0.633300
     28 O5           1.6040    -2.9280     1.3570 o          1 180      -0.633300
     29 C18          3.1920    -2.4510     3.2880 ca         1 180      -0.442800
     30 C19          3.3950    -2.4670     4.6600 ca         1 180      -0.001000
     31 C20          4.6910    -2.5900     5.1350 ca         1 180      -0.291300
     32 C21          5.7320    -2.6920     4.2310 ca         1 180       0.456200
     33 N4           5.5020    -2.6720     2.9330 nb         1 180      -0.712000
     34 C22          4.2810    -2.5640     2.4460 ca         1 180       0.517200
     35 H2           3.0420    -0.5100     1.1750 h1         1 180       0.042700
     36 H31          1.4090     1.9750     1.8030 h1         1 180       0.072200
     37 H32          2.9990     1.9310     1.0270 h1         1 180       0.072200
     38 HN1          3.2980     0.5830     3.4710 hn         1 180       0.307500
     39 H6           3.7340     4.6620     5.5630 ha         1 180       0.161000
     40 H8           4.6700     5.4250     8.2190 ha         1 180       0.141000
     41 H101         6.5450     4.0720    11.1890 hc         1 180       0.054700
     42 H102         6.0720     5.6000    10.4330 hc         1 180       0.054700
     43 H111         3.7350     5.2320    11.1520 hc         1 180       0.052200
     44 H112         4.2080     3.7040    11.9080 hc         1 180       0.052200
     45 H12          5.2910     6.4490    12.6530 hc         1 180       0.046700
     46 H131         3.3710     4.5590    14.0630 hc         1 180       0.051200
     47 H132         2.9790     6.1570    13.4020 hc         1 180       0.051200
     48 H141         4.6090     7.1860    14.9600 h1         1 180       0.028950
     49 H142         3.3500     6.2970    15.8330 h1         1 180       0.028950
     50 HN2          5.4660     5.7710    16.6980 hn         1 180       0.347800
     51 H151         6.6950     6.4180    14.7420 h1         1 180       0.028950
     52 H152         7.2200     4.8700    15.4260 h1         1 180       0.028950
     53 H161         5.7640     3.6780    13.8100 hc         1 180       0.051200
     54 H162         6.9600     4.6920    12.9820 hc         1 180       0.051200
     55 HN3          0.5820    -0.2000     2.8150 hn         1 180       0.461800
     56 H19          2.5600    -2.3850     5.3450 ha         1 180       0.158000
     57 H20          4.8850    -2.6060     6.2000 ha         1 180       0.134000
     58 H21          6.7490    -2.7850     4.5930 h4         1 180       0.015100
     59 H22          4.1310    -2.5520     1.3730 h4         1 180       0.059100
@<TRIPOS>BOND
     1     1     2 1   
     2     2     3 1   
     3     2     4 1   
     4     4     5 1   
     5     4    25 1   
     6     4    35 1   
     7     5     6 1   
     8     5    36 1   
     9     5    37 1   
    10     6     7 1   
    11     6    38 1   
    12     7     8 2   
    13     7     9 1   
    14     9    10 2   
    15     9    24 1   
    16    10    11 1   
    17    10    39 1   
    18    11    12 1   
    19    11    23 2   
    20    12    13 2   
    21    12    40 1   
    22    13    14 1   
    23    13    22 1   
    24    14    15 1   
    25    14    41 1   
    26    14    42 1   
    27    15    16 1   
    28    15    43 1   
    29    15    44 1   
    30    16    17 1   
    31    16    21 1   
    32    16    45 1   
    33    17    18 1   
    34    17    46 1   
    35    17    47 1   
    36    18    19 1   
    37    18    48 1   
    38    18    49 1   
    39    19    20 1   
    40    19    50 1   
    41    20    21 1   
    42    20    51 1   
    43    20    52 1   
    44    21    53 1   
    45    21    54 1   
    46    22    23 1   
    47    23    24 1   
    48    25    26 1   
    49    25    55 1   
    50    26    27 2   
    51    26    28 2   
    52    26    29 1   
    53    29    30 ar  
    54    29    34 ar  
    55    30    31 ar  
    56    30    56 1   
    57    31    32 ar  
    58    31    57 1   
    59    32    33 ar  
    60    32    58 1   
    61    33    34 ar  
    62    34    59 1   
@<TRIPOS>SUBSTRUCTURE
     1 180         1 TEMP              0 ****  ****    0 ROOT
