@<TRIPOS>MOLECULE
molecule
   61    64     1     0     0
SMALL
bcc


@<TRIPOS>ATOM
      1 O1           0.0000     0.0000     0.0000 o          1 180      -0.487300
      2 C1           1.2130     0.0000     0.0000 c          1 180       1.026600
      3 O2           1.8160    -0.0040    -1.0400 o          1 180      -0.487300
      4 C2           1.9540     0.0000     1.2870 c3         1 180      -0.604500
      5 C3           1.1300     0.6610     2.3740 c3         1 180       0.263800
      6 N1           1.6830     0.2350     3.6470 ny         1 180      -0.707800
      7 C4           2.2540     1.1280     4.4090 c          1 180       0.598700
      8 O3           2.4900     2.2130     3.9380 o          1 180      -0.483100
      9 C5           2.7170     0.7920     5.7390 cc         1 180      -0.277700
     10 C6           3.6160     1.4680     6.4850 cd         1 180       0.045000
     11 C7           3.9970     1.0070     7.7470 cd         1 180      -0.132000
     12 C8           4.9390     1.4980     8.7520 cd         1 180      -0.090000
     13 C9           5.1050     0.8350     9.8740 cc         1 180      -0.082400
     14 C10          6.0150     1.1650    11.0100 c3         1 180      -0.021100
     15 C11          5.2740     2.0790    11.9790 c3         1 180      -0.071400
     16 C12          6.2750     2.6670    12.9470 c3         1 180      -0.066700
     17 C13          5.5710     3.6100    13.8980 c3         1 180      -0.074900
     18 C14          6.6240     4.1900    14.8220 c3         1 180       0.164300
     19 N2           7.2490     3.1150    15.6170 n7         1 180      -0.820200
     20 C15          7.9430     2.1860    14.7100 c3         1 180       0.164300
     21 C16          6.9460     1.5550    13.7480 c3         1 180      -0.074900
     22 S1           3.9920    -0.5370     9.7080 ss         1 180       0.173200
     23 C17          3.3540    -0.1690     8.1260 cc         1 180      -0.118200
     24 S2           2.3040    -0.5740     6.7780 ss         1 180       0.093200
     25 N3           2.3320    -1.3660     1.6670 ny         1 180      -0.561900
     26 S3           3.9430    -1.7850     1.6730 sy         1 180       1.472200
     27 O4           4.0260    -3.0990     1.1960 o          1 180      -0.592300
     28 O5           4.5680    -0.6970     1.0090 o          1 180      -0.592300
     29 C18          4.5640    -1.7820     3.3060 ca         1 180      -0.576800
     30 C19          4.3410    -2.8730     4.1450 ca         1 180       0.040000
     31 C20          4.8660    -2.8420     5.4340 ca         1 180      -0.261300
     32 C21          5.6120    -1.7400     5.8240 ca         1 180       0.494200
     33 N4           5.8020    -0.7220     4.9960 nb         1 180      -0.699000
     34 C22          5.2940    -0.7070     3.7730 ca         1 180       0.519200
     35 H2           2.8610     0.5760     1.1540 hx         1 180       0.143700
     36 H31          1.1970     1.7390     2.2850 hx         1 180       0.078700
     37 H32          0.0960     0.3470     2.2970 hx         1 180       0.078700
     38 HN1          0.9350    -0.1720     4.1750 hn         1 180       0.436800
     39 H6           4.0480     2.3830     6.0990 ha         1 180       0.187000
     40 H8           5.4980     2.4080     8.5710 ha         1 180       0.178000
     41 H101         6.3070     0.2550    11.5190 hc         1 180       0.064200
     42 H102         6.8960     1.6710    10.6340 hc         1 180       0.064200
     43 H111         4.5330     1.5070    12.5240 hc         1 180       0.047700
     44 H112         4.7870     2.8750    11.4290 hc         1 180       0.047700
     45 H12          7.0310     3.2150    12.3970 hc         1 180       0.048700
     46 H131         5.0940     4.4070    13.3400 hc         1 180       0.046700
     47 H132         4.8340     3.0660    14.4760 hc         1 180       0.046700
     48 H141         7.3850     4.6860    14.2320 h1         1 180       0.030950
     49 H142         6.1590     4.9050    15.4910 h1         1 180       0.030950
     50 HN2          7.9080     3.5120    16.2560 hn         1 180       0.369800
     51 H151         8.6900     2.7300    14.1450 h1         1 180       0.030950
     52 H152         8.4200     1.4080    15.2930 h1         1 180       0.030950
     53 H161         6.1970     1.0090    14.3090 hc         1 180       0.046700
     54 H162         7.4660     0.8850    13.0750 hc         1 180       0.046700
     55 HN3          1.8620    -1.9920     1.0420 hn         1 180       0.431300
     56 H19          3.9620    -3.8020     3.7360 ha         1 180       0.180000
     57 H20          4.7130    -3.6730     6.1120 ha         1 180       0.181000
     58 H21          6.0370    -1.7070     6.8200 h4         1 180       0.056100
     59 H22          5.4710     0.1440     3.1270 h4         1 180       0.056100
     60 H121         2.3810    -0.4550     3.4530 hn         1 180       0.436800
     61 H321         2.0140    -1.5160     2.6040 hn         1 180       0.431300
@<TRIPOS>BOND
     1     1     2 1   
     2     2     3 1   
     3     2     4 1   
     4     4     5 1   
     5     4    25 1   
     6     4    35 1   
     7     5     6 1   
     8     5    36 1   
     9     5    37 1   
    10     6     7 1   
    11     6    38 1   
    12     7     8 2   
    13     7     9 1   
    14     9    10 2   
    15     9    24 1   
    16    10    11 1   
    17    10    39 1   
    18    11    12 1   
    19    11    23 2   
    20    12    13 2   
    21    12    40 1   
    22    13    14 1   
    23    13    22 1   
    24    14    15 1   
    25    14    41 1   
    26    14    42 1   
    27    15    16 1   
    28    15    43 1   
    29    15    44 1   
    30    16    17 1   
    31    16    21 1   
    32    16    45 1   
    33    17    18 1   
    34    17    46 1   
    35    17    47 1   
    36    18    19 1   
    37    18    48 1   
    38    18    49 1   
    39    19    20 1   
    40    19    50 1   
    41    20    21 1   
    42    20    51 1   
    43    20    52 1   
    44    21    53 1   
    45    21    54 1   
    46    22    23 1   
    47    23    24 1   
    48    25    26 1   
    49    25    55 1   
    50    26    27 2   
    51    26    28 2   
    52    26    29 1   
    53    29    30 ar  
    54    29    34 ar  
    55    30    31 ar  
    56    30    56 1   
    57    31    32 ar  
    58    31    57 1   
    59    32    33 ar  
    60    32    58 1   
    61    33    34 ar  
    62    34    59 1   
    63    60     6 1   
    64    61    25 1   
@<TRIPOS>SUBSTRUCTURE
     1 180         1 TEMP              0 ****  ****    0 ROOT
