@<TRIPOS>MOLECULE
181
   34    35     1     0     0
SMALL
bcc


@<TRIPOS>ATOM
      1 OAC        -1.2650   -0.6610   -0.0060 oh        1 181     -0.592800
      2 CAJ         0.0340   -0.9020   -0.4990 c3        1 181      0.135400
      3 CAK         1.0940   -0.6590    0.5730 c3        1 181      0.071400
      4 OAN         0.9240   -1.7020    1.5320 os        1 181     -0.420600
      5 CAL         1.9030   -1.7400    2.5560 c3        1 181      0.289800
      6 NAT         1.7200   -0.7260    3.5840 n         1 181     -0.398000
      7 CAS         0.9160   -1.0380    4.7250 c         1 181      0.810500
      8 OAB         0.4740   -2.1920    4.8970 o         1 181     -0.623500
      9 NAM         0.6740   -0.0230    5.6540 n         1 181     -0.584500
     10 CAR         1.1580    1.2940    5.5150 c         1 181      0.727700
     11 OAA         0.9070    2.0960    6.4270 o         1 181     -0.589500
     12 CAI         2.1810    0.5600    3.4130 cc        1 181      0.105600
     13 CAQ         1.9330    1.5810    4.2950 cd        1 181     -0.229600
     14 SAO         2.4000    3.1360    3.8370 ss        1 181     -0.083500
     15 CAP         3.7280    3.5900    4.7950 ca        1 181     -0.032100
     16 CAH         4.5610    4.5640    4.2250 ca        1 181     -0.113500
     17 CAF         5.6480    5.0620    4.9370 ca        1 181     -0.122000
     18 CAD         5.9260    4.5820    6.2180 ca        1 181     -0.129000
     19 CAE         5.1040    3.6110    6.7870 ca        1 181     -0.122000
     20 CAG         4.0050    3.1220    6.0820 ca        1 181     -0.113500
     21 HAC        -1.4090   -1.2750    0.7260 ho        1 181      0.415000
     22 HAJ1        0.1710   -0.1670   -1.3360 h1        1 181      0.058200
     23 HAJ2        0.1170   -1.9520   -0.8890 h1        1 181      0.058200
     24 HAK1        0.9340    0.3370    1.0620 h1        1 181      0.042200
     25 HAK2        2.1230   -0.7080    0.1300 h1        1 181      0.042200
     26 HAL1        2.9370   -1.6170    2.1230 h2        1 181      0.093700
     27 HAL2        1.7560   -2.7610    3.0240 h2        1 181      0.093700
     28 HAM         0.1180   -0.2580    6.4500 hn        1 181      0.356500
     29 HAI         2.7810    0.7360    2.4950 h4        1 181      0.172000
     30 HAH         4.3480    4.9370    3.2110 ha        1 181      0.141000
     31 HAF         6.2910    5.8320    4.4860 ha        1 181      0.134000
     32 HAD         6.7900    4.9720    6.7770 ha        1 181      0.132000
     33 HAE         5.3120    3.2350    7.8000 ha        1 181      0.134000
     34 HAG         3.3380    2.3800    6.5500 ha        1 181      0.141000
@<TRIPOS>BOND
     1    1    2 1
     2    1   21 1
     3    2    3 1
     4    2   22 1
     5    2   23 1
     6    3    4 1
     7    3   24 1
     8    3   25 1
     9    4    5 1
    10    5    6 1
    11    5   26 1
    12    5   27 1
    13    6    7 1
    14    6   12 1
    15    7    8 2
    16    7    9 1
    17    9   10 1
    18    9   28 1
    19   10   11 2
    20   10   13 1
    21   12   13 2
    22   12   29 1
    23   13   14 1
    24   14   15 1
    25   15   16 ar
    26   15   20 ar
    27   16   17 ar
    28   16   30 1
    29   17   18 ar
    30   17   31 1
    31   18   19 ar
    32   18   32 1
    33   19   20 ar
    34   19   33 1
    35   20   34 1
@<TRIPOS>SUBSTRUCTURE
     1 181         1 TEMP              0 ****  ****    0 ROOT
