@<TRIPOS>MOLECULE
182
   34    35     1     0     0
SMALL
bcc


@<TRIPOS>ATOM
      1 OAC         0.6000   -0.9300    0.9590 oh        1 182     -0.609800
      2 CAJ         1.0160    0.3580    0.5380 c3        1 182      0.109400
      3 CAK         1.9160    0.9250    1.6320 c3        1 182      0.113400
      4 OAN         1.1060    1.5710    2.6150 os        1 182     -0.428600
      5 CAL         1.2030    1.0460    3.9280 c3        1 182      0.290800
      6 NAT         0.5040   -0.2190    4.1060 n         1 182     -0.389000
      7 CAS         1.2590   -1.4330    4.1180 c         1 182      0.818500
      8 OAB         2.5080   -1.4040    4.0740 o         1 182     -0.645500
      9 NAM         0.5620   -2.6380    4.2160 n         1 182     -0.577500
     10 CAR        -0.8470   -2.7240    4.2230 c         1 182      0.730700
     11 OAA        -1.3490   -3.8580    4.2350 o         1 182     -0.599500
     12 CAI        -0.8710   -0.2780    4.0850 cc        1 182      0.132600
     13 CAQ        -1.5800   -1.4470    4.2010 cd        1 182     -0.243600
     14 SE         -3.2420   -1.3300    4.4560 ss        1 182     -0.083500
     15 CAP        -4.0280   -1.8010    3.0260 ca        1 182     -0.029100
     16 CAH        -5.3190   -1.2780    2.8580 ca        1 182     -0.115500
     17 CAF        -6.0860   -1.6400    1.7550 ca        1 182     -0.124000
     18 CAD        -5.5690   -2.5150    0.7990 ca        1 182     -0.132000
     19 CAE        -4.2860   -3.0350    0.9590 ca        1 182     -0.124000
     20 CAG        -3.5210   -2.6850    2.0700 ca        1 182     -0.115500
     21 HAC        -0.0050   -1.2610    0.2860 ho        1 182      0.408000
     22 HAJ1        1.5980    0.2770   -0.4180 h1        1 182      0.038700
     23 HAJ2        0.1260    1.0230    0.3810 h1        1 182      0.038700
     24 HAK1        2.5510    0.1150    2.0790 h1        1 182      0.070700
     25 HAK2        2.5630    1.7350    1.2010 h1        1 182      0.070700
     26 HAL1        2.2810    0.9010    4.2260 h2        1 182      0.091700
     27 HAL2        0.6940    1.8310    4.5620 h2        1 182      0.091700
     28 HAM         1.1030   -3.4780    4.2120 hn        1 182      0.354500
     29 HAI        -1.3880    0.7020    4.0030 h4        1 182      0.179000
     30 HAH        -5.7250   -0.5800    3.6070 ha        1 182      0.141500
     31 HAF        -7.1000   -1.2310    1.6370 ha        1 182      0.132000
     32 HAD        -6.1750   -2.7970   -0.0750 ha        1 182      0.131000
     33 HAE        -3.8770   -3.7340    0.2140 ha        1 182      0.132000
     34 HAG        -2.5200   -3.1250    2.2110 ha        1 182      0.141500
@<TRIPOS>BOND
     1    1    2 1   
     2    1   21 1   
     3    2    3 1   
     4    2   22 1   
     5    2   23 1   
     6    3    4 1   
     7    3   24 1   
     8    3   25 1   
     9    4    5 1   
    10    5    6 1   
    11    5   26 1   
    12    5   27 1   
    13    6    7 1   
    14    6   12 1   
    15    7    8 2   
    16    7    9 1   
    17    9   10 1   
    18    9   28 1   
    19   10   11 2   
    20   10   13 1   
    21   12   13 2   
    22   12   29 1   
    23   13   14 1   
    24   14   15 1   
    25   15   16 ar  
    26   15   20 ar  
    27   16   17 ar  
    28   16   30 1   
    29   17   18 ar  
    30   17   31 1   
    31   18   19 ar  
    32   18   32 1   
    33   19   20 ar  
    34   19   33 1   
    35   20   34 1   
@<TRIPOS>SUBSTRUCTURE
     1 182         1 TEMP              0 ****  ****    0 ROOT
