@<TRIPOS>MOLECULE
183
   50    52     1     0     0
SMALL
bcc


@<TRIPOS>ATOM
      1 OAC        -0.4950    0.0260    0.2170 oh        1 183     -0.594800
      2 CAN         0.9000    0.1360    0.0420 c3        1 183      0.135400
      3 CAO         1.6240    0.2830    1.3780 c3        1 183      0.071400
      4 OAT         1.4660   -0.9670    2.0490 os        1 183     -0.426600
      5 CAR         2.2060   -1.1020    3.2510 c3        1 183      0.293800
      6 NBC         1.6610   -0.3580    4.3730 n         1 183     -0.400000
      7 CBB         0.6700   -0.9730    5.1920 c         1 183      0.809500
      8 OAB         0.3990   -2.1860    5.0730 o         1 183     -0.631500
      9 NAS         0.0340   -0.1910    6.1670 n         1 183     -0.583500
     10 CBA         0.3000    1.1750    6.3540 c         1 183      0.719700
     11 OAA        -0.3320    1.7910    7.2290 o         1 183     -0.612500
     12 CAY         1.9310    0.9940    4.5300 cc        1 183      0.039600
     13 CAZ         1.3290    1.7660    5.4760 cd        1 183     -0.244400
     14 CAQ         1.6650    3.2010    5.6650 c3        1 183      0.023100
     15 CAW         0.9240    4.0850    4.7170 ca        1 183     -0.055300
     16 CAK        -0.4330    4.3590    4.9380 ca        1 183     -0.151000
     17 CAH        -1.1280    5.1880    4.0630 ca        1 183     -0.092000
     18 CAL        -0.4900    5.7570    2.9600 ca        1 183     -0.201000
     19 CAM         1.5800    4.6470    3.6230 ca        1 183     -0.163000
     20 CAX         0.8650    5.4820    2.7450 ca        1 183      0.126100
     21 OAU         1.6170    5.9860    1.7000 os        1 183     -0.331900
     22 CAP         0.8910    6.7520    0.7280 c3        1 183      0.174700
     23 CAV         1.8490    7.1460   -0.3470 ca        1 183     -0.095300
     24 CAJ         1.3880    7.2590   -1.6640 ca        1 183     -0.112000
     25 CAG         2.2570    7.6660   -2.6740 ca        1 183     -0.132000
     26 CAE         3.5890    7.9540   -2.3790 ca        1 183     -0.125000
     27 CAF         4.0530    7.8360   -1.0690 ca        1 183     -0.132000
     28 CAI         3.1860    7.4350   -0.0530 ca        1 183     -0.112000
     29 HAC        -0.6510   -0.7470    0.7760 ho        1 183      0.415000
     30 HAN1        1.0470    1.0660   -0.5690 h1        1 183      0.056200
     31 HAN2        1.2960   -0.7570   -0.5110 h1        1 183      0.056200
     32 HAO1        1.1610    1.1020    1.9890 h1        1 183      0.044200
     33 HAO2        2.7130    0.4970    1.2160 h1        1 183      0.044200
     34 HAR1        3.2720   -0.7700    3.0970 h2        1 183      0.090200
     35 HAR2        2.1330   -2.2080    3.4800 h2        1 183      0.090200
     36 HAS        -0.6550   -0.6420    6.7310 hn        1 183      0.354500
     37 HAY         2.6920    1.4090    3.8400 h4        1 183      0.163000
     38 HAQ1        2.7730    3.3450    5.5370 hc        1 183      0.069700
     39 HAQ2        1.4040    3.4990    6.7210 hc        1 183      0.069700
     40 HAK        -0.9390    3.9080    5.8070 ha        1 183      0.154000
     41 HAH        -2.1930    5.4000    4.2400 ha        1 183      0.136000
     42 HAL        -1.0560    6.4090    2.2810 ha        1 183      0.138000
     43 HAM         2.6460    4.4570    3.4350 ha        1 183      0.141000
     44 HAP1        0.4710    7.6700    1.2240 h1        1 183      0.049700
     45 HAP2        0.0520    6.1300    0.3140 h1        1 183      0.049700
     46 HAJ         0.3390    7.0260   -1.9010 ha        1 183      0.139000
     47 HAG         1.8900    7.7570   -3.7070 ha        1 183      0.133000
     48 HAE         4.2730    8.2740   -3.1790 ha        1 183      0.132000
     49 HAF         5.1040    8.0600   -0.8340 ha        1 183      0.133000
     50 HAI         3.5460    7.3350    0.9820 ha        1 183      0.139000
@<TRIPOS>BOND
     1    1    2 1   
     2    1   29 1   
     3    2    3 1   
     4    2   30 1   
     5    2   31 1   
     6    3    4 1   
     7    3   32 1   
     8    3   33 1   
     9    4    5 1   
    10    5    6 1   
    11    5   34 1   
    12    5   35 1   
    13    6    7 1   
    14    6   12 1   
    15    7    8 2   
    16    7    9 1   
    17    9   10 1   
    18    9   36 1   
    19   10   11 2   
    20   10   13 1   
    21   12   13 2   
    22   12   37 1   
    23   13   14 1   
    24   14   15 1   
    25   14   38 1   
    26   14   39 1   
    27   15   16 ar  
    28   15   19 ar  
    29   16   17 ar  
    30   16   40 1   
    31   17   18 ar  
    32   17   41 1   
    33   18   20 ar  
    34   18   42 1   
    35   19   20 ar  
    36   19   43 1   
    37   20   21 1   
    38   21   22 1   
    39   22   23 1   
    40   22   44 1   
    41   22   45 1   
    42   23   24 ar  
    43   23   28 ar  
    44   24   25 ar  
    45   24   46 1   
    46   25   26 ar  
    47   25   47 1   
    48   26   27 ar  
    49   26   48 1   
    50   27   28 ar  
    51   27   49 1   
    52   28   50 1   
@<TRIPOS>SUBSTRUCTURE
     1 183         1 TEMP              0 ****  ****    0 ROOT
