@<TRIPOS>MOLECULE
184
   56    59     1     0     0
SMALL
bcc


@<TRIPOS>ATOM
      1 C1           0.4890    -0.6720    -1.3320 c          1 184       0.907200
      2 C2           1.9250    -0.3280    -0.9560 ca         1 184      -0.117600
      3 C3           2.1810     0.8220    -0.1660 ca         1 184      -0.083000
      4 C4           3.4640     1.1620     0.1900 ca         1 184      -0.167000
      5 C5           4.5630     0.3640    -0.2290 ca         1 184      -0.049000
      6 C10          4.3120    -0.7900    -1.0190 ca         1 184      -0.042000
      7 C11          2.9770    -1.1150    -1.3700 ca         1 184      -0.115000
      8 C15         10.4050     0.8920    -3.1030 ca         1 184      -0.062300
      9 C16         11.1130     0.0440    -4.1270 c3         1 184      -0.004700
     10 C17         12.0400     0.8890    -5.0020 c3         1 184      -0.068400
     11 C18         11.3880     2.1710    -5.4550 c3         1 184      -0.069400
     12 C19         11.0130     3.0780    -4.2820 c3         1 184      -0.003700
     13 C20         10.3700     2.2940    -3.1690 ca         1 184      -0.062300
     14 C23         10.0770    -0.6610    -4.9970 c3         1 184      -0.084600
     15 C24         11.9740    -1.0140    -3.4380 c3         1 184      -0.084600
     16 C25         10.0460     4.1360    -4.8140 c3         1 184      -0.084100
     17 C26         12.2590     3.7790    -3.7490 c3         1 184      -0.084100
     18 O1          -0.4260     0.0950    -0.9210 o          1 184      -0.827800
     19 O2           0.2930    -1.7040    -2.0340 o          1 184      -0.827800
     20 C6           5.9010     0.6910     0.1190 ca         1 184      -0.079000
     21 C7           6.9490    -0.0970    -0.2980 ca         1 184      -0.114300
     22 C8           6.6980    -1.2540    -1.0830 ca         1 184      -0.149000
     23 C9           5.4150    -1.5870    -1.4340 ca         1 184      -0.110000
     24 C13          9.0750     0.9530    -1.0580 ca         1 184      -0.113300
     25 C14          9.7420     0.2390    -2.0530 ca         1 184      -0.116000
     26 C21          9.7090     3.0050    -2.1550 ca         1 184      -0.132000
     27 C22          9.0670     2.3500    -1.1120 ca         1 184      -0.116000
     28 C12          8.3740     0.2190     0.0550 c3         1 184       0.243700
     29 O3           8.3790     0.9830     1.2610 oh         1 184      -0.592800
     30 H3           1.3110     1.4240     0.1460 ha         1 184       0.156000
     31 H4           3.6640     2.0520     0.8030 ha         1 184       0.111000
     32 H11          2.7690    -2.0080    -1.9830 ha         1 184       0.153000
     33 H171        12.9740     1.1240    -4.4270 hc         1 184       0.038700
     34 H172        12.3420     0.2860    -5.8990 hc         1 184       0.038700
     35 H181        12.0860     2.7250    -6.1360 hc         1 184       0.041700
     36 H182        10.4630     1.9330    -6.0440 hc         1 184       0.041700
     37 H231         9.4610     0.0830    -5.5570 hc         1 184       0.036367
     38 H232        10.5850    -1.3320    -5.7300 hc         1 184       0.036367
     39 H233         9.3940    -1.2760    -4.3610 hc         1 184       0.036367
     40 H241        12.6400    -1.5060    -4.1880 hc         1 184       0.036367
     41 H242        11.3380    -1.8020    -2.9690 hc         1 184       0.036367
     42 H243        12.6070    -0.5470    -2.6470 hc         1 184       0.036367
     43 H251         9.0470     3.6820    -5.0160 hc         1 184       0.035033
     44 H252         9.9200     4.9660    -4.0790 hc         1 184       0.035033
     45 H253        10.4450     4.5680    -5.7630 hc         1 184       0.035033
     46 H261        11.9900     4.4370    -2.8880 hc         1 184       0.035033
     47 H262        13.0120     3.0320    -3.4030 hc         1 184       0.035033
     48 H263        12.7170     4.4070    -4.5500 hc         1 184       0.035033
     49 H6           6.0890     1.5820     0.7380 ha         1 184       0.132000
     50 H8           7.5480    -1.8720    -1.4070 ha         1 184       0.108000
     51 H9           5.2120    -2.4800    -2.0430 ha         1 184       0.125000
     52 H14          9.7330    -0.8620    -2.0160 ha         1 184       0.132000
     53 H21          9.6900     4.1050    -2.1870 ha         1 184       0.128000
     54 H22          8.5350     2.9190    -0.3330 ha         1 184       0.145000
     55 H12          8.9260    -0.7490     0.2550 h1         1 184       0.035700
     56 HO3          9.2930     1.2560     1.4050 ho         1 184       0.393000
@<TRIPOS>BOND
     1     1     2 1   
     2     1    18 1   
     3     1    19 1   
     4     2     3 ar  
     5     2     7 ar  
     6     3     4 ar  
     7     3    30 1   
     8     4     5 ar  
     9     4    31 1   
    10     5     6 ar  
    11     5    20 ar  
    12     6     7 ar  
    13     6    23 ar  
    14     7    32 1   
    15     8     9 1   
    16     8    13 ar  
    17     8    25 ar  
    18     9    10 1   
    19     9    14 1   
    20     9    15 1   
    21    10    11 1   
    22    10    33 1   
    23    10    34 1   
    24    11    12 1   
    25    11    35 1   
    26    11    36 1   
    27    12    13 1   
    28    12    16 1   
    29    12    17 1   
    30    13    26 ar  
    31    14    37 1   
    32    14    38 1   
    33    14    39 1   
    34    15    40 1   
    35    15    41 1   
    36    15    42 1   
    37    16    43 1   
    38    16    44 1   
    39    16    45 1   
    40    17    46 1   
    41    17    47 1   
    42    17    48 1   
    43    20    21 ar  
    44    20    49 1   
    45    21    22 ar  
    46    21    28 1   
    47    22    23 ar  
    48    22    50 1   
    49    23    51 1   
    50    24    25 ar  
    51    24    27 ar  
    52    24    28 1   
    53    25    52 1   
    54    26    27 ar  
    55    26    53 1   
    56    27    54 1   
    57    28    29 1   
    58    28    55 1   
    59    29    56 1   
@<TRIPOS>SUBSTRUCTURE
     1 184         1 TEMP              0 ****  ****    0 ROOT
