@<TRIPOS>MOLECULE
184
   56    59     1     0     0
SMALL
bcc


@<TRIPOS>ATOM
      1 C1          0.1700   -0.1180   -1.6900 c         1 184      0.907200
      2 C2          1.6300    0.0160   -1.2760 ca        1 184     -0.116600
      3 C3          1.9610    0.7940   -0.1350 ca        1 184     -0.079000
      4 C4          3.2670    0.9400    0.2640 ca        1 184     -0.171000
      5 C5          4.3160    0.3130   -0.4610 ca        1 184     -0.045000
      6 C10         3.9910   -0.4690   -1.6020 ca        1 184     -0.041000
      7 C11         2.6320   -0.6020   -1.9900 ca        1 184     -0.115000
      8 C15         8.7490    3.4330   -1.8750 ca        1 184     -0.061300
      9 C16         8.2460    4.2000   -3.0690 c3        1 184     -0.004700
     10 C17         8.6270    5.6790   -2.9780 c3        1 184     -0.069400
     11 C18        10.0540    5.8790   -2.5360 c3        1 184     -0.068400
     12 C19        10.3120    5.3160   -1.1380 c3        1 184     -0.003700
     13 C20         9.6910    3.9550   -0.9730 ca        1 184     -0.066300
     14 C23         6.7220    4.1230   -3.1470 c3        1 184     -0.085600
     15 C24         8.8310    3.5920   -4.3410 c3        1 184     -0.085600
     16 C25        11.8270    5.2360   -0.9490 c3        1 184     -0.083600
     17 C26         9.7390    6.2610   -0.0850 c3        1 184     -0.083600
     18 O1         -0.0910   -0.8100   -2.7130 o         1 184     -0.825300
     19 O2         -0.6970    0.4720   -0.9850 o         1 184     -0.825300
     20 C6          5.6760    0.4500   -0.0790 ca        1 184     -0.103000
     21 C7          6.6800   -0.1630   -0.7980 ca        1 184     -0.145300
     22 C8          6.3520   -0.9490   -1.9340 ca        1 184     -0.146000
     23 C9          5.0440   -1.0950   -2.3230 ca        1 184     -0.109000
     24 C13         8.6390    1.3720   -0.5700 ca        1 184     -0.112300
     25 C14         8.2490    2.1380   -1.6680 ca        1 184     -0.110000
     26 C21        10.0660    3.1850    0.1380 ca        1 184     -0.138000
     27 C22         9.5520    1.9110    0.3430 ca        1 184     -0.124000
     28 C12         8.1220   -0.0320   -0.3990 c3        1 184      0.238700
     29 O3          8.3500   -0.5060    0.9230 oh        1 184     -0.600800
     30 H3          1.1270    1.2700    0.4080 ha        1 184      0.158000
     31 H4          3.5240    1.5430    1.1460 ha        1 184      0.111000
     32 H11         2.3670   -1.2060   -2.8730 ha        1 184      0.155000
     33 H171        8.4760    6.1560   -3.9830 hc        1 184      0.041700
     34 H172        7.9350    6.1910   -2.2580 hc        1 184      0.041700
     35 H181       10.7460    5.3800   -3.2650 hc        1 184      0.038200
     36 H182       10.2970    6.9740   -2.5390 hc        1 184      0.038200
     37 H231        6.3870    3.1020   -3.4460 hc        1 184      0.038200
     38 H232        6.3450    4.8510   -3.9060 hc        1 184      0.038200
     39 H233        6.2690    4.3700   -2.1570 hc        1 184      0.038200
     40 H241        9.9430    3.6790   -4.3450 hc        1 184      0.038200
     41 H242        8.5590    2.5110   -4.4070 hc        1 184      0.038200
     42 H243        8.4250    4.1180   -5.2370 hc        1 184      0.038200
     43 H251       12.2510    4.4110   -1.5690 hc        1 184      0.033867
     44 H252       12.0870    5.0510    0.1200 hc        1 184      0.033867
     45 H253       12.2980    6.2000   -1.2610 hc        1 184      0.033867
     46 H261        8.6390    6.3820   -0.2230 hc        1 184      0.033867
     47 H262        9.9250    5.8540    0.9380 hc        1 184      0.033867
     48 H263       10.2240    7.2640   -0.1650 hc        1 184      0.033867
     49 H6          5.9130    1.0680    0.8000 ha        1 184      0.117000
     50 H8          7.1600   -1.4400   -2.4930 ha        1 184      0.116000
     51 H9          4.7840   -1.7030   -3.2030 ha        1 184      0.128000
     52 H14         7.5210    1.7120   -2.3790 ha        1 184      0.150000
     53 H21        10.7810    3.5960    0.8670 ha        1 184      0.123000
     54 H22         9.8610    1.3160    1.2160 ha        1 184      0.141000
     55 H12         8.7640   -0.7180   -1.0320 h1        1 184      0.076700
     56 HO3         7.6860   -0.1010    1.4940 ho        1 184      0.403000
@<TRIPOS>BOND
     1    1    2 1   
     2    1   18 1   
     3    1   19 1   
     4    2    3 ar  
     5    2    7 ar  
     6    3    4 ar  
     7    3   30 1   
     8    4    5 ar  
     9    4   31 1   
    10    5    6 ar  
    11    5   20 ar  
    12    6    7 ar  
    13    6   23 ar  
    14    7   32 1   
    15    8    9 1   
    16    8   13 ar  
    17    8   25 ar  
    18    9   10 1   
    19    9   14 1   
    20    9   15 1   
    21   10   11 1   
    22   10   33 1   
    23   10   34 1   
    24   11   12 1   
    25   11   35 1   
    26   11   36 1   
    27   12   13 1   
    28   12   16 1   
    29   12   17 1   
    30   13   26 ar  
    31   14   37 1   
    32   14   38 1   
    33   14   39 1   
    34   15   40 1   
    35   15   41 1   
    36   15   42 1   
    37   16   43 1   
    38   16   44 1   
    39   16   45 1   
    40   17   46 1   
    41   17   47 1   
    42   17   48 1   
    43   20   21 ar  
    44   20   49 1   
    45   21   22 ar  
    46   21   28 1   
    47   22   23 ar  
    48   22   50 1   
    49   23   51 1   
    50   24   25 ar  
    51   24   27 ar  
    52   24   28 1   
    53   25   52 1   
    54   26   27 ar  
    55   26   53 1   
    56   27   54 1   
    57   28   29 1   
    58   28   55 1   
    59   29   56 1   
@<TRIPOS>SUBSTRUCTURE
     1 184         1 TEMP              0 ****  ****    0 ROOT
