@<TRIPOS>MOLECULE
molecule
   56    59     1     0     0
SMALL
bcc


@<TRIPOS>ATOM
      1 C1           0.0000     0.0000     0.0000 c          1 184       0.880200
      2 C2           1.4760     0.0000     0.0000 ca         1 184      -0.093600
      3 C3           2.1740     0.0000     1.2210 ca         1 184      -0.073000
      4 C4           3.5310     0.0010     1.2470 ca         1 184      -0.166000
      5 C5           4.2570     0.0010     0.0430 ca         1 184      -0.047000
      6 C10          3.5660     0.0030    -1.1940 ca         1 184      -0.042000
      7 C11          2.1640     0.0020    -1.2020 ca         1 184      -0.114000
      8 C15          9.0500     3.3830    -2.3210 ca         1 184      -0.067300
      9 C16          9.2930     4.0340    -3.6570 c3         1 184      -0.015700
     10 C17          9.3720     5.5520    -3.5100 c3         1 184      -0.071400
     11 C18         10.3730     5.8780    -2.3960 c3         1 184      -0.071400
     12 C19          9.7620     5.4560    -1.0620 c3         1 184      -0.018700
     13 C20          9.2710     4.0340    -1.1300 ca         1 184      -0.067300
     14 C23          8.1490     3.6780    -4.6080 c3         1 184      -0.081100
     15 C24         10.6100     3.5160    -4.2380 c3         1 184      -0.081100
     16 C25         10.8210     5.5720     0.0370 c3         1 184      -0.080600
     17 C26          8.5880     6.3800    -0.7290 c3         1 184      -0.080600
     18 O1          -0.6080     0.0010    -1.0510 o          1 184      -0.834800
     19 O2          -0.6740    -0.0020     1.1670 o          1 184      -0.834800
     20 C6           5.6630    -0.0050     0.0450 ca         1 184      -0.080000
     21 C7           6.3400     0.0020    -1.1350 ca         1 184      -0.132300
     22 C8           5.6600     0.0030    -2.3520 ca         1 184      -0.147000
     23 C9           4.3000     0.0030    -2.3940 ca         1 184      -0.110000
     24 C13          8.3480     1.4210    -1.1230 ca         1 184      -0.086300
     25 C14          8.5860     2.0740    -2.3140 ca         1 184      -0.119000
     26 C21          9.0320     3.3750     0.0690 ca         1 184      -0.133000
     27 C22          8.5740     2.0750     0.0740 ca         1 184      -0.098000
     28 C12          7.8460     0.0010    -1.1270 c3         1 184       0.246700
     29 O3           8.3150    -0.6740     0.0420 oh         1 184      -0.603800
     30 H3           1.6210    -0.0010     2.1530 ha         1 184       0.156000
     31 H4           4.0540     0.0010     2.1960 ha         1 184       0.113000
     32 H11          1.6270     0.1400    -2.1330 ha         1 184       0.152000
     33 H171         9.7090     5.9910    -4.4410 hc         1 184       0.044700
     34 H172         8.3960     5.9430    -3.2480 hc         1 184       0.044700
     35 H181        11.2820     5.3120    -2.5620 hc         1 184       0.043200
     36 H182        10.5490     6.9470    -2.3810 hc         1 184       0.043200
     37 H231         8.2040     4.3060    -5.4900 hc         1 184       0.035533
     38 H232         8.2310     2.6380    -4.8990 hc         1 184       0.035533
     39 H233         7.2010     3.8400    -4.1090 hc         1 184       0.035533
     40 H241        11.0440     4.2730    -4.8810 hc         1 184       0.035533
     41 H242        10.4230     2.6180    -4.8130 hc         1 184       0.035533
     42 H243        11.2970     3.2910    -3.4310 hc         1 184       0.035533
     43 H251        11.3530     6.5100    -0.0710 hc         1 184       0.035533
     44 H252        10.3410     5.5390     1.0070 hc         1 184       0.035533
     45 H253        11.5210     4.7490    -0.0480 hc         1 184       0.035533
     46 H261         7.6880     6.0050    -1.2010 hc         1 184       0.035533
     47 H262         8.4470     6.4120     0.3450 hc         1 184       0.035533
     48 H263         8.7990     7.3780    -1.0950 hc         1 184       0.035533
     49 H6           6.2050    -0.0050     0.9830 ha         1 184       0.134000
     50 H8           6.2230     0.0080    -3.2780 ha         1 184       0.105000
     51 H9           3.7860     0.0040    -3.3470 ha         1 184       0.125000
     52 H14          8.4100     1.5620    -3.2520 ha         1 184       0.129000
     53 H21          9.2080     3.8860     1.0080 ha         1 184       0.127000
     54 H22          8.3890     1.5670     1.0130 ha         1 184       0.147000
     55 H12          8.2120    -0.5090    -2.0100 h1         1 184       0.033700
     56 HO3          8.8310    -1.4210    -0.2120 ho         1 184       0.398000
@<TRIPOS>BOND
     1     1     2 1   
     2     1    18 1   
     3     1    19 1   
     4     2     3 ar  
     5     2     7 ar  
     6     3     4 ar  
     7     3    30 1   
     8     4     5 ar  
     9     4    31 1   
    10     5     6 ar  
    11     5    20 ar  
    12     6     7 ar  
    13     6    23 ar  
    14     7    32 1   
    15     8     9 1   
    16     8    13 ar  
    17     8    25 ar  
    18     9    10 1   
    19     9    14 1   
    20     9    15 1   
    21    10    11 1   
    22    10    33 1   
    23    10    34 1   
    24    11    12 1   
    25    11    35 1   
    26    11    36 1   
    27    12    13 1   
    28    12    16 1   
    29    12    17 1   
    30    13    26 ar  
    31    14    37 1   
    32    14    38 1   
    33    14    39 1   
    34    15    40 1   
    35    15    41 1   
    36    15    42 1   
    37    16    43 1   
    38    16    44 1   
    39    16    45 1   
    40    17    46 1   
    41    17    47 1   
    42    17    48 1   
    43    20    21 ar  
    44    20    49 1   
    45    21    22 ar  
    46    21    28 1   
    47    22    23 ar  
    48    22    50 1   
    49    23    51 1   
    50    24    25 ar  
    51    24    27 ar  
    52    24    28 1   
    53    25    52 1   
    54    26    27 ar  
    55    26    53 1   
    56    27    54 1   
    57    28    29 1   
    58    28    55 1   
    59    29    56 1   
@<TRIPOS>SUBSTRUCTURE
     1 184         1 TEMP              0 ****  ****    0 ROOT
