@<TRIPOS>MOLECULE
185
   45    47     1     0     0
SMALL
bcc


@<TRIPOS>ATOM
      1 C1           0.0620     0.1760     0.0840 ca         1 185       0.106100
      2 O17         -0.5290     0.2370    -1.1860 os         1 185      -0.350400
      3 C2           1.4560     0.3060     0.1970 ca         1 185      -0.058300
      4 C2'          2.2900     0.6630    -0.9720 c3         1 185      -0.058300
      5 C3           2.0420     0.0860     1.4480 ca         1 185      -0.098000
      6 C4           1.2480    -0.2470     2.5520 ca         1 185      -0.004000
      7 C5          -0.1410    -0.3670     2.4200 ca         1 185      -0.098000
      8 C6          -0.7530    -0.1540     1.1810 ca         1 185      -0.058300
      9 C6'         -2.2180    -0.2970     1.0290 c3         1 185      -0.058300
     10 C13         -0.9440     1.4690    -1.6590 ca         1 185       0.715600
     11 N12         -0.7090     2.5840    -0.9300 nb         1 185      -0.789000
     12 C11         -1.1550     3.7720    -1.4820 ca         1 185       0.917900
     13 N5          -1.0180     4.9690    -0.7620 nu         1 185      -0.712300
     14 N16         -1.7880     3.8770    -2.7180 nb         1 185      -0.751000
     15 C15         -1.9970     2.7410    -3.4050 ca         1 185       0.485600
     16 C18         -2.6940     2.8780    -4.7510 c3         1 185       0.071100
     17 C14         -1.5970     1.4660    -2.9260 ca         1 185      -0.341500
     18 C21         -0.1530     5.1150     0.3440 ca         1 185       0.155600
     19 C22         -0.2580     4.2920     1.4840 ca         1 185      -0.144000
     20 C23          0.5630     4.5130     2.5850 ca         1 185      -0.077500
     21 C24          1.4920     5.5610     2.5800 ca         1 185      -0.027000
     22 C25          1.5960     6.3910     1.4560 ca         1 185      -0.077500
     23 C26          0.7870     6.1730     0.3480 ca         1 185      -0.144000
     24 C27          2.3250     5.7840     3.7090 cg         1 185       0.231800
     25 N27          3.0080     5.9690     4.6330 n1         1 185      -0.356800
     26 C4'          1.8570    -0.4690     3.8180 cg         1 185       0.228800
     27 N4'          2.3540    -0.6520     4.8540 n1         1 185      -0.353800
     28 O18         -1.7730     2.8360    -5.8160 oh         1 185      -0.575800
     29 Br          -1.9120    -0.0940    -3.8890 br         1 185      -0.037100
     30 H2'1         2.1900     1.7560    -1.1900 hc         1 185       0.055867
     31 H2'2         3.3680     0.4370    -0.7830 hc         1 185       0.055867
     32 H2'3         1.9580     0.0940    -1.8770 hc         1 185       0.055867
     33 H3           3.1330     0.1770     1.5620 ha         1 185       0.151000
     34 H5          -0.7570    -0.6320     3.2930 ha         1 185       0.151000
     35 H6'1        -2.4560    -1.2930     0.5750 hc         1 185       0.055867
     36 H6'2        -2.7360    -0.2240     2.0170 hc         1 185       0.055867
     37 H6'3        -2.6200     0.4970     0.3520 hc         1 185       0.055867
     38 HN5         -1.1640     5.8040    -1.2950 hn         1 185       0.454800
     39 H181        -3.4680     2.0700    -4.8450 h1         1 185       0.076700
     40 H182        -3.1910     3.8840    -4.8530 h1         1 185       0.076700
     41 H22         -0.9890     3.4680     1.5190 ha         1 185       0.152000
     42 H23          0.4740     3.8610     3.4680 ha         1 185       0.150000
     43 H25          2.3230     7.2180     1.4470 ha         1 185       0.150000
     44 H26          0.8860     6.8360    -0.5260 ha         1 185       0.152000
     45 H18         -1.3820     1.9520    -5.8350 ho         1 185       0.407000
@<TRIPOS>BOND
     1     1     2 1   
     2     1     3 ar  
     3     1     8 ar  
     4     2    10 1   
     5     3     4 1   
     6     3     5 ar  
     7     4    30 1   
     8     4    31 1   
     9     4    32 1   
    10     5     6 ar  
    11     5    33 1   
    12     6     7 ar  
    13     6    26 1   
    14     7     8 ar  
    15     7    34 1   
    16     8     9 1   
    17     9    35 1   
    18     9    36 1   
    19     9    37 1   
    20    10    11 ar  
    21    10    17 ar  
    22    11    12 ar  
    23    12    13 1   
    24    12    14 ar  
    25    13    18 1   
    26    13    38 1   
    27    14    15 ar  
    28    15    16 1   
    29    15    17 ar  
    30    16    28 1   
    31    16    39 1   
    32    16    40 1   
    33    17    29 1   
    34    18    19 ar  
    35    18    23 ar  
    36    19    20 ar  
    37    19    41 1   
    38    20    21 ar  
    39    20    42 1   
    40    21    22 ar  
    41    21    24 1   
    42    22    23 ar  
    43    22    43 1   
    44    23    44 1   
    45    24    25 3   
    46    26    27 3   
    47    28    45 1   
@<TRIPOS>SUBSTRUCTURE
     1 185         1 TEMP              0 ****  ****    0 ROOT
