@<TRIPOS>MOLECULE
molecule
   45    47     1     0     0
SMALL
bcc


@<TRIPOS>ATOM
      1 C1           0.0000     0.0000     0.0000 ca         1 185       0.077100
      2 O17         -0.6770     0.0010    -1.1770 os         1 185      -0.290400
      3 C2           1.3900     0.0000     0.0000 ca         1 185      -0.041300
      4 C2'          2.1430     0.0080    -1.3050 c3         1 185      -0.067800
      5 C3           2.0800     0.0000     1.1920 ca         1 185      -0.121000
      6 C4           1.3820    -0.0060     2.4020 ca         1 185      -0.016000
      7 C5          -0.0150    -0.0130     2.3980 ca         1 185      -0.121000
      8 C6          -0.6980    -0.0120     1.2010 ca         1 185      -0.041300
      9 C6'         -2.2050    -0.0180     1.1940 c3         1 185      -0.067800
     10 C13         -0.9460     1.2960    -1.4730 ca         1 185       0.713600
     11 N12         -0.4470     2.2740    -0.7280 nb         1 185      -0.801000
     12 C11         -0.7080     3.5400    -1.0140 ca         1 185       0.897900
     13 N5          -0.1710     4.5380    -0.2150 nu         1 185      -0.594300
     14 N16         -1.4690     3.8780    -2.0440 nb         1 185      -0.804000
     15 C15         -1.9990     2.9530    -2.8300 ca         1 185       0.527600
     16 C18         -2.8630     3.3510    -3.9990 c3         1 185       0.070100
     17 C14         -1.7470     1.6190    -2.5690 ca         1 185      -0.292500
     18 C21         -0.5570     5.8640    -0.4020 ca         1 185       0.082600
     19 C22         -0.7870     6.6820     0.6990 ca         1 185      -0.165000
     20 C23         -1.1690     7.9920     0.5190 ca         1 185      -0.069500
     21 C24         -1.3250     8.5010    -0.7740 ca         1 185      -0.039000
     22 C25         -1.0940     7.6760    -1.8790 ca         1 185      -0.069500
     23 C26         -0.7060     6.3690    -1.6910 ca         1 185      -0.165000
     24 C27         -1.7230     9.8630    -0.9670 cg         1 185       0.240800
     25 N27         -2.0540    10.9400    -1.1080 n1         1 185      -0.363800
     26 C4'          2.1000    -0.4780     3.8160 cg         1 185       0.282800
     27 N4'          2.6410    -0.2860     4.6180 n1         1 185      -0.379800
     28 O18         -2.0450     3.5220    -5.1590 oh         1 185      -0.585800
     29 Br          -2.4820     0.2630    -3.6630 br         1 185      -0.034100
     30 H2'1         2.8400     0.8320    -1.2030 hc         1 185       0.059533
     31 H2'2         1.6140     0.6250    -2.0220 hc         1 185       0.059533
     32 H2'3         2.6280    -0.9410    -1.4970 hc         1 185       0.059533
     33 H3           3.1120    -0.3300     1.1850 ha         1 185       0.152000
     34 H5          -0.2510     0.2210     3.4290 ha         1 185       0.152000
     35 H6'1        -2.8460     0.1700     0.3420 hc         1 185       0.059533
     36 H6'2        -2.5240    -0.7500     1.9270 hc         1 185       0.059533
     37 H6'3        -2.1310     0.9290     1.7140 hc         1 185       0.059533
     38 HN5         -0.6060     4.3270     0.6610 hn         1 185       0.390800
     39 H181        -3.1610     4.3620    -4.2480 h1         1 185       0.064200
     40 H182        -3.8410     2.9630    -3.7430 h1         1 185       0.064200
     41 H22         -1.0890     6.2490     1.6450 ha         1 185       0.173500
     42 H23         -1.5850     8.4540     1.4060 ha         1 185       0.145000
     43 H25         -1.0900     8.2060    -2.8240 ha         1 185       0.145000
     44 H26         -0.9180     5.4570    -2.2370 ha         1 185       0.173500
     45 H18         -2.0170     4.4210    -5.4400 ho         1 185       0.419000
@<TRIPOS>BOND
     1     1     2 1
     2     1     3 ar
     3     1     8 ar
     4     2    10 1
     5     3     4 1
     6     3     5 ar
     7     4    30 1
     8     4    31 1
     9     4    32 1
    10     5     6 ar
    11     5    33 1
    12     6     7 ar
    13     6    26 1
    14     7     8 ar
    15     7    34 1
    16     8     9 1
    17     9    35 1
    18     9    36 1
    19     9    37 1
    20    10    11 ar
    21    10    17 ar
    22    11    12 ar
    23    12    13 1
    24    12    14 ar
    25    13    18 1
    26    13    38 1
    27    14    15 ar
    28    15    16 1
    29    15    17 ar
    30    16    28 1
    31    16    39 1
    32    16    40 1
    33    17    29 1
    34    18    19 ar
    35    18    23 ar
    36    19    20 ar
    37    19    41 1
    38    20    21 ar
    39    20    42 1
    40    21    22 ar
    41    21    24 1
    42    22    23 ar
    43    22    43 1
    44    23    44 1
    45    24    25 3
    46    26    27 3
    47    28    45 1
@<TRIPOS>SUBSTRUCTURE
     1 185         1 TEMP              0 ****  ****    0 ROOT
