@<TRIPOS>MOLECULE
186
   54    57     1     0     0
SMALL
bcc


@<TRIPOS>ATOM
      1 O34          0.0000     0.0000     0.0000 o          1 186      -0.469000
      2 C18          1.2150     0.0000     0.0000 c2         1 186       0.336000
      3 O26          1.8890     0.0000     1.1660 os         1 186      -0.264000
      4 C27          1.1630     0.0000     2.4240 c3         1 186       0.151000
      5 C28          2.1420    -0.0000     3.5690 ca         1 186      -0.113000
      6 C33          2.5920     1.1960     4.0950 ca         1 186      -0.074000
      7 C32          3.4890     1.1960     5.1450 ca         1 186      -0.106500
      8 C31          3.9370    -0.0010     5.6710 ca         1 186      -0.089000
      9 C30          3.4870    -1.1980     5.1470 ca         1 186      -0.106500
     10 C29          2.5850    -1.1980     4.0980 ca         1 186      -0.074000
     11 N17          1.8900    -0.0000    -1.1670 ns         1 186       0.033000
     12 C13          1.1570    -0.0010    -2.4350 c3         1 186      -0.066000
     13 C16          0.7930    -1.4380    -2.8150 c3         1 186      -0.065000
     14 C20         -0.1700    -1.9960    -1.7980 ca         1 186      -0.078000
     15 C25         -1.5320    -1.8470    -1.9820 ca         1 186      -0.088000
     16 C24         -2.4150    -2.3600    -1.0500 ca         1 186      -0.089500
     17 C23         -1.9360    -3.0210     0.0650 ca         1 186      -0.093000
     18 C22         -0.5740    -3.1700     0.2480 ca         1 186      -0.089500
     19 C21          0.3090    -2.6620    -0.6850 ca         1 186      -0.088000
     20 C12          2.0210     0.6000    -3.5140 c2         1 186       0.220000
     21 O19          3.1400     0.9890    -3.2490 o          1 186      -0.398000
     22 N11          1.5520     0.7040    -4.7740 ns         1 186      -0.041000
     23 C8           2.3930     1.2870    -5.8220 DU         1 186       0.017000
     24 C14          3.3020     0.2060    -6.4070 c3         1 186      -0.150000
     25 C7           1.5170     1.8510    -6.9120 c2         1 186      -0.085000
     26 C6           1.5780     3.1520    -7.2130 c2         1 186      -0.111000
     27 C5           0.7270     3.7000    -8.2720 c3         1 186       0.306000
     28 O10         -0.0350     2.9720    -8.8780 o          1 186      -0.334000
     29 C4           0.7950     5.1490    -8.6080 c2         1 186       0.225000
     30 O9           0.0930     5.6010    -9.4820 o          1 186      -0.241000
     31 H271         0.5400     0.8850     2.4810 h1         1 186       0.051500
     32 H272         0.5390    -0.8840     2.4810 h1         1 186       0.051500
     33 H33          2.2400     2.1350     3.6830 ha         1 186       0.106000
     34 H32          3.8410     2.1340     5.5560 ha         1 186       0.104000
     35 H31          4.6420    -0.0010     6.4940 ha         1 186       0.102000
     36 H30          3.8370    -2.1370     5.5600 ha         1 186       0.104000
     37 H29          2.2320    -2.1360     3.6870 ha         1 186       0.106000
     38 H17          2.8900     0.0450    -1.1670 hn         1 186       0.114000
     39 H13          0.2520     0.5860    -2.3300 h1         1 186       0.111000
     40 H161         0.3300    -1.4460    -3.7940 hc         1 186       0.063500
     41 H162         1.6900    -2.0450    -2.8340 hc         1 186       0.063500
     42 H25         -1.9080    -1.3290    -2.8560 ha         1 186       0.099000
     43 H24         -3.4820    -2.2430    -1.1940 ha         1 186       0.099000
     44 H23         -2.6280    -3.4210     0.7960 ha         1 186       0.100000
     45 H22         -0.1990    -3.6900     1.1210 ha         1 186       0.099000
     46 H21          1.3760    -2.7790    -0.5420 ha         1 186       0.099000
     47 H11          0.6210     0.4060    -4.9870 hn         1 186       0.110000
     48 H8           2.9990     2.0790    -5.4000 ha         1 186       0.124000
     49 H141         2.7020    -0.6380    -6.7260 hc         1 186       0.059333
     50 H142         3.8410     0.6080    -7.2570 hc         1 186       0.059333
     51 H143         4.0090    -0.1190    -5.6530 hc         1 186       0.059333
     52 H7           1.3190     1.9560    -5.8520 DU         1 186       0.061000
     53 H6           0.5250     3.3790    -7.0960 DU         1 186       0.014000
     54 H4           1.4840     5.7950    -8.0780 h4         1 186       0.065000
@<TRIPOS>BOND
     1     1     2 1   
     2     2     3 1   
     3     2    11 1   
     4     3     4 1   
     5     4     5 1   
     6     4    31 1   
     7     4    32 1   
     8     5     6 1   
     9     5    10 1   
    10     6     7 1   
    11     6    33 1   
    12     7     8 1   
    13     7    34 1   
    14     8     9 1   
    15     8    35 1   
    16     9    10 1   
    17     9    36 1   
    18    10    37 1   
    19    11    12 1   
    20    11    38 1   
    21    12    13 1   
    22    12    20 1   
    23    12    39 1   
    24    13    14 1   
    25    13    40 1   
    26    13    41 1   
    27    14    15 1   
    28    14    19 1   
    29    15    16 1   
    30    15    42 1   
    31    16    17 1   
    32    16    43 1   
    33    17    18 1   
    34    17    44 1   
    35    18    19 1   
    36    18    45 1   
    37    19    46 1   
    38    20    21 1   
    39    20    22 1   
    40    22    23 1   
    41    22    47 1   
    42    23    24 1   
    43    23    25 1   
    44    23    48 1   
    45    23    52 1   
    46    24    49 1   
    47    24    50 1   
    48    24    51 1   
    49    25    26 1   
    50    25    52 1   
    51    26    27 1   
    52    26    53 1   
    53    27    28 1   
    54    27    29 1   
    55    27    53 1   
    56    29    30 1   
    57    29    54 1   
@<TRIPOS>SUBSTRUCTURE
     1 186         1 TEMP              0 ****  ****    0 ROOT
