@<TRIPOS>MOLECULE
186
   56    57     1     0     0
SMALL
bcc


@<TRIPOS>ATOM
      1 O34          0.8880    -1.6040    -0.2400 o          1 186      -0.511000
      2 C18          1.0800    -0.3970    -0.1000 c          1 186       0.649100
      3 O26          0.6890     0.4020     0.8760 os         1 186      -0.384900
      4 C27          0.0350    -0.2060     2.0770 c3         1 186       0.230700
      5 C28          1.0590    -0.6630     3.0330 ca         1 186      -0.208300
      6 C33          1.7120     0.2650     3.8570 ca         1 186      -0.087500
      7 C32          2.6220    -0.1740     4.8160 ca         1 186      -0.129500
      8 C31          2.8800    -1.5380     4.9630 ca         1 186      -0.065000
      9 C30          2.2320    -2.4660     4.1440 ca         1 186      -0.129500
     10 C29          1.3250    -2.0320     3.1810 ca         1 186      -0.087500
     11 N17          1.8080     0.3680    -1.1770 ny         1 186      -0.665800
     12 C13          3.1920    -0.1360    -1.4390 c3         1 186       0.058500
     13 C16          3.8430     0.6350    -2.6120 c3         1 186      -0.037100
     14 C20          3.7480     2.1000    -2.3900 ca         1 186      -0.191300
     15 C25          4.7910     2.7920    -1.7630 ca         1 186      -0.130500
     16 C24          4.7140     4.1770    -1.6070 ca         1 186      -0.105500
     17 C23          3.6010     4.8750    -2.0760 ca         1 186      -0.077000
     18 C22          2.5600     4.1870    -2.7070 ca         1 186      -0.105500
     19 C21          2.6320     2.8060    -2.8660 ca         1 186      -0.130500
     20 C12          3.3470    -1.6360    -1.7030 c          1 186       0.520100
     21 O19          4.3040    -2.2590    -1.2720 o          1 186      -0.352100
     22 N11          2.3400    -2.3560    -2.5370 ny         1 186      -0.687800
     23 C8           2.9270    -3.4480    -3.4300 c3         1 186       0.168700
     24 C14          1.9860    -4.6450    -3.5040 c3         1 186      -0.142100
     25 C7           3.2530    -2.9400    -4.8010 c2         1 186      -0.171200
     26 C6           2.4300    -2.3700    -5.6840 ce         1 186      -0.196200
     27 C5           1.0060    -2.0410    -5.4910 c          1 186       0.412300
     28 O10          0.0830    -2.8470    -5.5670 o          1 186      -0.400100
     29 C4           0.7380    -0.5800    -5.1970 c          1 186       0.552900
     30 O9           1.0140    -0.1310    -4.0740 o          1 186      -0.634100
     31 H271        -0.6430    -1.0220     1.7200 h1         1 186       0.111700
     32 H272        -0.5370     0.6980     2.4330 h1         1 186       0.111700
     33 H33          1.4920     1.3400     3.7590 ha         1 186       0.141500
     34 H32          3.1240     0.5560     5.4730 ha         1 186       0.163000
     35 H31          3.5870    -1.8850     5.7360 ha         1 186       0.166000
     36 H30          2.4250    -3.5430     4.2740 ha         1 186       0.163000
     37 H29          0.7980    -2.7670     2.5510 ha         1 186       0.141500
     38 H17          1.9030     1.3680    -0.8930 hn         1 186       0.500800
     39 H13          3.7970     0.0700    -0.4920 hx         1 186       0.172700
     40 H161         3.3370     0.3530    -3.5750 hc         1 186       0.097200
     41 H162         4.9200     0.3120    -2.6660 hc         1 186       0.097200
     42 H25          5.6840     2.2520    -1.4110 ha         1 186       0.138000
     43 H24          5.5430     4.7200    -1.1230 ha         1 186       0.169000
     44 H23          3.5470     5.9710    -1.9620 ha         1 186       0.174000
     45 H22          1.6910     4.7430    -3.0950 ha         1 186       0.169000
     46 H21          1.8360     2.2760    -3.4150 ha         1 186       0.138000
     47 H11          1.8270    -1.6850    -3.1220 hn         1 186       0.477800
     48 H8           3.8880    -3.7860    -2.9230 hx         1 186       0.138700
     49 H141         1.7930    -5.0790    -2.4920 hc         1 186       0.096700
     50 H142         2.4850    -5.4340    -4.1260 hc         1 186       0.096700
     51 H143         1.0150    -4.3860    -3.9950 hc         1 186       0.096700
     52 H7           4.3030    -3.1460    -5.0970 ha         1 186       0.192000
     53 H6           2.8020    -2.1150    -6.7000 ha         1 186       0.206000
     54 H4           0.2930     0.0370    -6.0080 h4         1 186       0.099200
     55 H172         1.2440     0.3570    -2.0420 hn         1 186       0.500800
     56 H112         1.6680    -2.8060    -1.8860 hn         1 186       0.477800
@<TRIPOS>BOND
     1     1     2 2   
     2     2     3 1   
     3     2    11 1   
     4     3     4 1   
     5     4     5 1   
     6     4    31 1   
     7     4    32 1   
     8     5     6 ar  
     9     5    10 ar  
    10     6     7 ar  
    11     6    33 1   
    12     7     8 ar  
    13     7    34 1   
    14     8     9 ar  
    15     8    35 1   
    16     9    10 ar  
    17     9    36 1   
    18    10    37 1   
    19    11    12 1   
    20    11    38 1   
    21    11    55 1   
    22    12    13 1   
    23    12    20 1   
    24    12    39 1   
    25    13    14 1   
    26    13    40 1   
    27    13    41 1   
    28    14    15 ar  
    29    14    19 ar  
    30    15    16 ar  
    31    15    42 1   
    32    16    17 ar  
    33    16    43 1   
    34    17    18 ar  
    35    17    44 1   
    36    18    19 ar  
    37    18    45 1   
    38    19    46 1   
    39    20    21 2   
    40    20    22 1   
    41    22    23 1   
    42    22    47 1   
    43    22    56 1   
    44    23    24 1   
    45    23    25 1   
    46    23    48 1   
    47    24    49 1   
    48    24    50 1   
    49    24    51 1   
    50    25    26 2   
    51    25    52 1   
    52    26    27 1   
    53    26    53 1   
    54    27    28 2   
    55    27    29 1   
    56    29    30 2   
    57    29    54 1   
@<TRIPOS>SUBSTRUCTURE
     1 186         1 TEMP              0 ****  ****    0 ROOT
