@<TRIPOS>MOLECULE
molecule
   54    55     1     0     0
SMALL
bcc


@<TRIPOS>ATOM
      1 O34          0.0000     0.0000     0.0000 o          1 186      -0.607000
      2 C18          1.2150     0.0000     0.0000 c          1 186       0.756100
      3 O26          1.8890     0.0000     1.1660 os         1 186      -0.445900
      4 C27          1.1630     0.0000     2.4240 c3         1 186       0.224700
      5 C28          2.1420    -0.0000     3.5690 ca         1 186      -0.101300
      6 C33          2.5920     1.1960     4.0950 ca         1 186      -0.101500
      7 C32          3.4890     1.1960     5.1450 ca         1 186      -0.133000
      8 C31          3.9370    -0.0010     5.6710 ca         1 186      -0.116000
      9 C30          3.4870    -1.1980     5.1470 ca         1 186      -0.133000
     10 C29          2.5850    -1.1980     4.0980 ca         1 186      -0.101500
     11 N17          1.8900    -0.0000    -1.1670 ns         1 186      -0.559900
     12 C13          1.1570    -0.0010    -2.4350 c3         1 186       0.069700
     13 C16          0.7930    -1.4380    -2.8150 c3         1 186      -0.047100
     14 C20         -0.1700    -1.9960    -1.7980 ca         1 186      -0.073300
     15 C25         -1.5320    -1.8470    -1.9820 ca         1 186      -0.113000
     16 C24         -2.4150    -2.3600    -1.0500 ca         1 186      -0.119500
     17 C23         -1.9360    -3.0210     0.0650 ca         1 186      -0.121000
     18 C22         -0.5740    -3.1700     0.2480 ca         1 186      -0.119500
     19 C21          0.3090    -2.6620    -0.6850 ca         1 186      -0.113000
     20 C12          2.0210     0.6000    -3.5140 c          1 186       0.652100
     21 O19          3.1400     0.9890    -3.2490 o          1 186      -0.606100
     22 N11          1.5520     0.7040    -4.7740 ns         1 186      -0.578900
     23 C8           2.3930     1.2870    -5.8220 c3         1 186       0.139900
     24 C14          3.3020     0.2060    -6.4070 c3         1 186      -0.107100
     25 C7           1.5170     1.8510    -6.9120 c2         1 186      -0.098200
     26 C6           1.5780     3.1520    -7.2130 ce         1 186      -0.258200
     27 C5           0.7270     3.7000    -8.2720 c          1 186       0.447300
     28 O10         -0.0350     2.9720    -8.8780 o          1 186      -0.474100
     29 C4           0.7950     5.1490    -8.6080 c          1 186       0.478900
     30 O9           0.0930     5.6010    -9.4820 o          1 186      -0.455100
     31 H271         0.5390    -0.8840     2.4810 h1         1 186       0.055200
     32 H272         0.5400     0.8850     2.4810 h1         1 186       0.055200
     33 H33          2.2400     2.1340     3.6830 ha         1 186       0.134000
     34 H32          3.8410     2.1340     5.5560 ha         1 186       0.132000
     35 H31          4.6420    -0.0010     6.4940 ha         1 186       0.131000
     36 H30          3.8370    -2.1370     5.5600 ha         1 186       0.132000
     37 H29          2.2320    -2.1360     3.6870 ha         1 186       0.134000
     38 H17          2.8900     0.0460    -1.1670 hn         1 186       0.345500
     39 H13          0.2520     0.5850    -2.3300 h1         1 186       0.099700
     40 H161         1.6900    -2.0450    -2.8340 hc         1 186       0.055700
     41 H162         0.3290    -1.4460    -3.7940 hc         1 186       0.055700
     42 H25         -1.9080    -1.3290    -2.8560 ha         1 186       0.124000
     43 H24         -3.4820    -2.2430    -1.1940 ha         1 186       0.125500
     44 H23         -2.6280    -3.4210     0.7960 ha         1 186       0.126000
     45 H22         -0.1990    -3.6900     1.1210 ha         1 186       0.125500
     46 H21          1.3760    -2.7790    -0.5420 ha         1 186       0.124000
     47 H11          0.6200     0.4080    -4.9870 hn         1 186       0.321500
     48 H8           2.9990     2.0790    -5.4000 h1         1 186       0.085700
     49 H141         3.4830     0.4140    -7.4550 hc         1 186       0.050033
     50 H142         2.8240    -0.7610    -6.3080 hc         1 186       0.050033
     51 H143         4.2450     0.1990    -5.8720 hc         1 186       0.050033
     52 H7           0.8380     1.2020    -7.4510 ha         1 186       0.153000
     53 H6           2.2570     3.8020    -6.6740 ha         1 186       0.143000
     54 H4           1.4740     5.7980    -8.0680 h4         1 186       0.008200
@<TRIPOS>BOND
     1     1     2 2   
     2     2     3 1   
     3     2    11 1   
     4     3     4 1   
     5     4     5 1   
     6     4    31 1   
     7     4    32 1   
     8     5     6 ar  
     9     5    10 ar  
    10     6     7 ar  
    11     6    33 1   
    12     7     8 ar  
    13     7    34 1   
    14     8     9 ar  
    15     8    35 1   
    16     9    10 ar  
    17     9    36 1   
    18    10    37 1   
    19    11    12 1   
    20    11    38 1   
    21    12    13 1   
    22    12    20 1   
    23    12    39 1   
    24    13    14 1   
    25    13    40 1   
    26    13    41 1   
    27    14    15 ar  
    28    14    19 ar  
    29    15    16 ar  
    30    15    42 1   
    31    16    17 ar  
    32    16    43 1   
    33    17    18 ar  
    34    17    44 1   
    35    18    19 ar  
    36    18    45 1   
    37    19    46 1   
    38    20    21 2   
    39    20    22 1   
    40    22    23 1   
    41    22    47 1   
    42    23    24 1   
    43    23    25 1   
    44    23    48 1   
    45    24    49 1   
    46    24    50 1   
    47    24    51 1   
    48    25    26 2   
    49    25    52 1   
    50    26    27 1   
    51    26    53 1   
    52    27    28 2   
    53    27    29 1   
    54    29    30 2   
    55    29    54 1   
@<TRIPOS>SUBSTRUCTURE
     1 186         1 TEMP              0 ****  ****    0 ROOT
