@<TRIPOS>MOLECULE
187
   55    59     1     0     0
SMALL
bcc


@<TRIPOS>ATOM
      1 C1          -0.4030    -0.1100    -0.0690 ca         1 187      -0.098000
      2 C2           0.9420     0.2420    -0.1040 ca         1 187      -0.110000
      3 C3           1.7190     0.2190     1.0560 ca         1 187      -0.037000
      4 C4           1.1290    -0.1350     2.2850 ca         1 187       0.017800
      5 C5          -0.2370    -0.4850     2.3350 ca         1 187      -0.057000
      6 C6          -0.9790    -0.4830     1.1520 ca         1 187      -0.221900
      7 C20         -2.4150    -0.8450     1.2100 ce         1 187       0.632800
      8 N3          -3.3220    -0.1470     1.7440 n2         1 187      -0.663100
      9 N4          -2.6210    -2.2060     0.5280 nz         1 187      -0.892600
     10 N1           1.9040    -0.1940     3.4830 na         1 187       0.175300
     11 N6           1.8860    -1.2890     4.2570 nc         1 187      -0.442800
     12 N5           3.0420     3.1950     4.3840 ns         1 187      -0.440100
     13 C7           3.2390     4.5570     4.0830 ca         1 187      -0.005400
     14 C44          2.8670     5.5430     5.0460 ca         1 187       0.112900
     15 C14          3.0760     6.9050     4.8020 ca         1 187      -0.172000
     16 C16          3.6450     7.3300     3.5830 ca         1 187       0.057800
     17 N7           3.8310     8.6940     3.3390 na         1 187      -0.119400
     18 C18          4.0040     6.3550     2.6280 ca         1 187      -0.147000
     19 C22          3.8130     5.0040     2.8790 ca         1 187      -0.098000
     20 C9           4.8340     9.3180     2.5670 ca         1 187      -0.061200
     21 C15          2.9580     9.7390     3.7610 cc         1 187       0.429700
     22 C23          4.5050    10.7330     2.5690 ca         1 187       0.066400
     23 N2           3.3260    10.9430     3.3250 nd         1 187      -0.541100
     24 C13          2.6960     0.8320     4.0540 cc         1 187      -0.144900
     25 C12          3.2140     0.3150     5.2510 cd         1 187      -0.196300
     26 C8           2.9270     2.1770     3.4620 c          1 187       0.709700
     27 C10          2.6780    -1.0240     5.3320 cd         1 187       0.227600
     28 O3           3.0310     2.3330     2.2300 o          1 187      -0.600100
     29 C11          2.9320    -2.0280     6.4410 c3         1 187       0.632600
     30 F1           1.7900    -2.4420     7.0810 f          1 187      -0.218967
     31 F3           3.7410    -1.5440     7.4360 f          1 187      -0.218967
     32 F2           3.5360    -3.1820     6.0170 f          1 187      -0.218967
     33 C17          5.3280    11.6390     1.8910 ca         1 187      -0.061000
     34 C21          6.4500    11.1440     1.2380 ca         1 187      -0.146000
     35 C25          6.7700     9.7780     1.2550 ca         1 187      -0.106000
     36 C27          5.9770     8.8460     1.9170 ca         1 187      -0.136000
     37 F4           2.3150     5.1690     6.2290 f          1 187      -0.137900
     38 H1          -1.0060    -0.0660    -0.9890 ha         1 187       0.144000
     39 H2           1.4070     0.5460    -1.0570 ha         1 187       0.174000
     40 H3           2.7880     0.5050     1.0040 ha         1 187       0.203000
     41 H5          -0.7150    -0.7540     3.2920 ha         1 187       0.171000
     42 HN3         -4.2840    -0.4040     1.7910 hn         1 187       0.467400
     43 HN41        -2.1500    -2.9250     1.0870 hn         1 187       0.458800
     44 HN42        -2.1780    -2.1750    -0.3970 hn         1 187       0.458800
     45 HN5          2.8740     2.9860     5.3460 hn         1 187       0.339500
     46 H14          2.7930     7.6290     5.5840 ha         1 187       0.167000
     47 H18          4.4380     6.6610     1.6610 ha         1 187       0.162000
     48 H22          4.1100     4.2740     2.1050 ha         1 187       0.174000
     49 H15          2.0780     9.5250     4.3800 h5         1 187       0.073800
     50 H12          3.8850     0.7860     5.9670 ha         1 187       0.202000
     51 H17          5.0880    12.7120     1.8850 ha         1 187       0.156000
     52 H21          7.1100    11.8400     0.6980 ha         1 187       0.142000
     53 H25          7.6760     9.4340     0.7330 ha         1 187       0.138000
     54 H27          6.2550     7.7840     1.9380 ha         1 187       0.138000
     55 H43         -3.6050    -2.4560     0.4210 hn         1 187       0.458800
@<TRIPOS>BOND
     1     1     2 ar  
     2     1     6 ar  
     3     1    38 1   
     4     2     3 ar  
     5     2    39 1   
     6     3     4 ar  
     7     3    40 1   
     8     4     5 ar  
     9     4    10 1   
    10     5     6 ar  
    11     5    41 1   
    12     6     7 1   
    13     7     8 2   
    14     7     9 1   
    15     8    42 1   
    16     9    43 1   
    17     9    44 1   
    18     9    55 1   
    19    10    11 1   
    20    10    24 1   
    21    11    27 2   
    22    12    13 1   
    23    12    26 1   
    24    12    45 1   
    25    13    14 ar  
    26    13    19 ar  
    27    14    15 ar  
    28    14    37 1   
    29    15    16 ar  
    30    15    46 1   
    31    16    17 1   
    32    16    18 ar  
    33    17    20 1   
    34    17    21 1   
    35    18    19 ar  
    36    18    47 1   
    37    19    48 1   
    38    20    22 ar  
    39    20    36 ar  
    40    21    23 2   
    41    21    49 1   
    42    22    23 1   
    43    22    33 ar  
    44    24    25 2   
    45    24    26 1   
    46    25    27 1   
    47    25    50 1   
    48    26    28 2   
    49    27    29 1   
    50    29    30 1   
    51    29    31 1   
    52    29    32 1   
    53    33    34 ar  
    54    33    51 1   
    55    34    35 ar  
    56    34    52 1   
    57    35    36 ar  
    58    35    53 1   
    59    36    54 1   
@<TRIPOS>SUBSTRUCTURE
     1 187         1 TEMP              0 ****  ****    0 ROOT
