@<TRIPOS>MOLECULE
187
   55    59     1     0     0
SMALL
bcc


@<TRIPOS>ATOM
      1 C1           0.0000     0.0000     0.0000 ca         1 187      -0.082000
      2 C2           1.3800     0.0000     0.0000 ca         1 187      -0.054000
      3 C3           2.0760     0.0000     1.1940 ca         1 187       0.014000
      4 C4           1.3900     0.0000     2.4030 ca         1 187      -0.125200
      5 C5           0.0030     0.0070     2.4120 ca         1 187      -0.033000
      6 C6          -0.6970     0.0010     1.2080 ca         1 187      -0.227900
      7 C20         -2.1790     0.0030     1.2110 ce         1 187       0.210800
      8 N3          -2.8280     0.0040     2.3400 n2         1 187      -0.482100
      9 N4          -2.8690     0.0030     0.0180 nz         1 187       0.190400
     10 N1           2.0990    -0.0000     3.6100 na         1 187       0.650300
     11 N6           1.8560     0.8310     4.7120 nc         1 187      -0.581800
     12 N5           4.8610    -2.4970     3.4690 ns         1 187       0.019900
     13 C7           5.3860    -3.5330     2.6860 ca         1 187      -0.116400
     14 C44          6.7500    -3.8030     2.7150 ca         1 187       0.097900
     15 C14          7.2660    -4.8300     1.9460 ca         1 187      -0.105000
     16 C16          6.4260    -5.5840     1.1400 ca         1 187      -0.130200
     17 N7           6.9500    -6.6220     0.3550 na         1 187       0.402600
     18 C18          5.0650    -5.3090     1.1070 ca         1 187      -0.120000
     19 C22          4.5470    -4.2880     1.8770 ca         1 187      -0.059000
     20 C9           8.0330    -6.5380    -0.4980 ca         1 187      -0.267200
     21 C15          6.4830    -7.9000     0.2920 cc         1 187       0.243700
     22 C23          8.1870    -7.8180    -1.0570 ca         1 187       0.064400
     23 N2           7.2060    -8.5980    -0.5350 nd         1 187      -0.496100
     24 C13          3.1500    -0.8180     3.9300 cc         1 187      -0.312900
     25 C12          3.5490    -0.4810     5.2080 cd         1 187      -0.217300
     26 C8           3.7460    -1.8520     3.0710 c          1 187       0.610700
     27 C10          2.7180     0.5430     5.6560 cd         1 187       0.271600
     28 O3           3.2320    -2.1260     2.0040 o          1 187      -0.658100
     29 C11          2.7960     1.2100     7.0040 c3         1 187       0.573600
     30 F1           1.7350     2.1110     7.1410 f          1 187      -0.195633
     31 F3           2.7190     0.2410     8.0100 f          1 187      -0.195633
     32 F2           4.0090     1.8990     7.1140 f          1 187      -0.195633
     33 C17          9.2170    -8.0500    -1.9720 ca         1 187      -0.030000
     34 C21         10.0730    -7.0270    -2.3110 ca         1 187      -0.113000
     35 C25          9.9220    -5.7660    -1.7510 ca         1 187      -0.079000
     36 C27          8.9110    -5.5200    -0.8470 ca         1 187      -0.096000
     37 F4           7.5690    -3.0690     3.5010 f          1 187      -0.116900
     38 H1          -0.5420    -0.0020    -0.9380 ha         1 187       0.086000
     39 H2           1.9200    -0.0010    -0.9390 ha         1 187       0.132000
     40 H3           3.1600    -0.0030     1.1880 ha         1 187       0.143000
     41 H5          -0.5340     0.0080     3.3530 ha         1 187       0.126000
     42 HN3         -2.3270     0.0040     3.2060 hn         1 187       0.383400
     43 HN41        -3.8520     0.0050     0.2030 hn         1 187       0.222133
     44 HN42        -2.6260     0.8190    -0.5070 hn         1 187       0.222133
     45 HN5          5.2930    -2.2590     4.3400 hn         1 187       0.183500
     46 H14          8.3210    -5.0710     2.0030 ha         1 187       0.145000
     47 H18          4.4110    -5.8860     0.4640 ha         1 187       0.125000
     48 H22          3.5670    -4.7110     2.0620 ha         1 187       0.135000
     49 H15          5.6340    -8.2800     0.8480 h5         1 187       0.028800
     50 H12          4.3590    -0.9360     5.7650 ha         1 187       0.154000
     51 H17          9.3420    -9.0310    -2.4130 ha         1 187       0.115000
     52 H21         10.8710    -7.2080    -3.0200 ha         1 187       0.110000
     53 H25         10.6020    -4.9700    -2.0270 ha         1 187       0.106000
     54 H27          8.7970    -4.5340    -0.4140 ha         1 187       0.102000
     55 H43         -2.6220    -0.8110    -0.5090 hn         1 187       0.222133
@<TRIPOS>BOND
     1     1     2 ar  
     2     1     6 ar  
     3     1    38 1   
     4     2     3 ar  
     5     2    39 1   
     6     3     4 ar  
     7     3    40 1   
     8     4     5 ar  
     9     4    10 1   
    10     5     6 ar  
    11     5    41 1   
    12     6     7 1   
    13     7     8 2   
    14     7     9 1   
    15     8    42 1   
    16     9    43 1   
    17     9    44 1   
    18     9    55 1   
    19    10    11 1   
    20    10    24 1   
    21    11    27 2   
    22    12    13 1   
    23    12    26 1   
    24    12    45 1   
    25    13    14 ar  
    26    13    19 ar  
    27    14    15 ar  
    28    14    37 1   
    29    15    16 ar  
    30    15    46 1   
    31    16    17 1   
    32    16    18 ar  
    33    17    20 1   
    34    17    21 1   
    35    18    19 ar  
    36    18    47 1   
    37    19    48 1   
    38    20    22 ar  
    39    20    36 ar  
    40    21    23 2   
    41    21    49 1   
    42    22    23 1   
    43    22    33 ar  
    44    24    25 2   
    45    24    26 1   
    46    25    27 1   
    47    25    50 1   
    48    26    28 2   
    49    27    29 1   
    50    29    30 1   
    51    29    31 1   
    52    29    32 1   
    53    33    34 ar  
    54    33    51 1   
    55    34    35 ar  
    56    34    52 1   
    57    35    36 ar  
    58    35    53 1   
    59    36    54 1   
@<TRIPOS>SUBSTRUCTURE
     1 187         1 TEMP              0 ****  ****    0 ROOT
