@<TRIPOS>MOLECULE
molecule
   55    59     1     0     0
SMALL
bcc


@<TRIPOS>ATOM
      1 C1           0.0000     0.0000     0.0000 ca         1 187      -0.125000
      2 C2           1.3800     0.0000     0.0000 ca         1 187      -0.095000
      3 C3           2.0760     0.0000     1.1940 ca         1 187      -0.028000
      4 C4           1.3900     0.0000     2.4030 ca         1 187       0.037800
      5 C5           0.0030     0.0070     2.4120 ca         1 187      -0.032000
      6 C6          -0.6970     0.0010     1.2080 ca         1 187      -0.192900
      7 C20         -2.1790     0.0030     1.2110 ce         1 187       0.544800
      8 N3          -2.8280     0.0040     2.3400 n2         1 187      -0.677100
      9 N4          -2.8690     0.0030     0.0180 nz         1 187      -0.801600
     10 N1           2.0990    -0.0000     3.6100 na         1 187       0.164300
     11 N6           1.8560     0.8310     4.7120 nc         1 187      -0.427800
     12 N5           4.8610    -2.4970     3.4690 ns         1 187      -0.445100
     13 C7           5.3860    -3.5330     2.6860 ca         1 187       0.025600
     14 C44          6.7500    -3.8030     2.7150 ca         1 187       0.121900
     15 C14          7.2660    -4.8300     1.9460 ca         1 187      -0.149000
     16 C16          6.4260    -5.5840     1.1400 ca         1 187       0.027800
     17 N7           6.9500    -6.6220     0.3550 na         1 187      -0.094400
     18 C18          5.0650    -5.3090     1.1070 ca         1 187      -0.157000
     19 C22          4.5470    -4.2880     1.8770 ca         1 187      -0.096000
     20 C9           8.0330    -6.5380    -0.4980 ca         1 187      -0.090200
     21 C15          6.4830    -7.9000     0.2920 cc         1 187       0.431700
     22 C23          8.1870    -7.8180    -1.0570 ca         1 187       0.093400
     23 N2           7.2060    -8.5980    -0.5350 nd         1 187      -0.583100
     24 C13          3.1500    -0.8180     3.9300 cc         1 187      -0.124900
     25 C12          3.5490    -0.4810     5.2080 cd         1 187      -0.249300
     26 C8           3.7460    -1.8520     3.0710 c          1 187       0.697700
     27 C10          2.7180     0.5430     5.6560 cd         1 187       0.264600
     28 O3           3.2320    -2.1260     2.0040 o          1 187      -0.598100
     29 C11          2.7960     1.2100     7.0040 c3         1 187       0.616600
     30 F1           1.7350     2.1110     7.1410 f          1 187      -0.203633
     31 F3           2.7190     0.2410     8.0100 f          1 187      -0.203633
     32 F2           4.0090     1.8990     7.1140 f          1 187      -0.203633
     33 C17          9.2170    -8.0500    -1.9720 ca         1 187      -0.063000
     34 C21         10.0730    -7.0270    -2.3110 ca         1 187      -0.141000
     35 C25          9.9220    -5.7660    -1.7510 ca         1 187      -0.105000
     36 C27          8.9110    -5.5200    -0.8470 ca         1 187      -0.132000
     37 F4           7.5690    -3.0690     3.5010 f          1 187      -0.128900
     38 H1          -0.5420    -0.0020    -0.9380 ha         1 187       0.108000
     39 H2           1.9200    -0.0010    -0.9390 ha         1 187       0.167000
     40 H3           3.1600    -0.0030     1.1880 ha         1 187       0.178000
     41 H5          -0.5340     0.0080     3.3530 ha         1 187       0.186000
     42 HN3         -3.8280     0.0050     2.3460 hn         1 187       0.435400
     43 HN41        -3.8520     0.0090     0.2040 hn         1 187       0.465800
     44 HN42        -2.6260     0.8180    -0.5100 hn         1 187       0.465800
     45 HN5          5.3020    -2.2480     4.3320 hn         1 187       0.344500
     46 H14          8.3270    -5.0500     1.9780 ha         1 187       0.175000
     47 H18          4.4060    -5.9070     0.4890 ha         1 187       0.152000
     48 H22          3.5820    -4.7510     2.0440 ha         1 187       0.167000
     49 H15          5.6340    -8.2790     0.8470 h5         1 187       0.075800
     50 H12          4.3590    -0.9360     5.7650 ha         1 187       0.181000
     51 H17          9.3420    -9.0310    -2.4130 ha         1 187       0.149000
     52 H21         10.8710    -7.2080    -3.0200 ha         1 187       0.141000
     53 H25         10.6020    -4.9700    -2.0270 ha         1 187       0.138000
     54 H27          8.7970    -4.5340    -0.4140 ha         1 187       0.128000
     55 H43         -2.6280    -0.8130    -0.5090 hn         1 187       0.465800
@<TRIPOS>BOND
     1     1     2 ar
     2     1     6 ar
     3     1    38 1
     4     2     3 ar
     5     2    39 1
     6     3     4 ar
     7     3    40 1
     8     4     5 ar
     9     4    10 1
    10     5     6 ar
    11     5    41 1
    12     6     7 1
    13     7     8 2
    14     7     9 1
    15     8    42 1
    16     9    43 1
    17     9    44 1
    18    10    11 1
    19    10    24 1
    20    11    27 2
    21    12    13 1
    22    12    26 1
    23    12    45 1
    24    13    14 ar
    25    13    19 ar
    26    14    15 ar
    27    14    37 1
    28    15    16 ar
    29    15    46 1
    30    16    17 1
    31    16    18 ar
    32    17    20 1
    33    17    21 1
    34    18    19 ar
    35    18    47 1
    36    19    48 1
    37    20    22 ar
    38    20    36 ar
    39    21    23 2
    40    21    49 1
    41    22    23 1
    42    22    33 ar
    43    24    25 2
    44    24    26 1
    45    25    27 1
    46    25    50 1
    47    26    28 2
    48    27    29 1
    49    29    30 1
    50    29    31 1
    51    29    32 1
    52    33    34 ar
    53    33    51 1
    54    34    35 ar
    55    34    52 1
    56    35    36 ar
    57    35    53 1
    58    36    54 1
    59    55     9 1
@<TRIPOS>SUBSTRUCTURE
     1 187         1 TEMP              0 ****  ****    0 ROOT
