@<TRIPOS>MOLECULE
molecule
   84    87     1     0     0
SMALL
bcc


@<TRIPOS>ATOM
      1 C1           0.0000     0.0000     0.0000 ca         1 189      -0.074000
      2 C6           1.3820     0.0000     0.0000 ca         1 189      -0.150500
      3 C5           2.0730     0.0000     1.1970 ca         1 189      -0.030500
      4 C4           1.3820    -0.0000     2.3940 ca         1 189      -0.315500
      5 S10          2.2630    -0.0000     3.9200 sy         1 189       1.425200
      6 O15          1.3620    -0.5250     4.8860 o          1 189      -0.637800
      7 O14          3.5500    -0.5260     3.6240 o          1 189      -0.637800
      8 N13          2.5110     1.5800     4.3490 n3         1 189      -0.814500
      9 C20          3.6740     2.3050     3.8330 c3         1 189       0.229800
     10 C21          3.2960     3.0180     2.5330 c3         1 189      -0.105700
     11 C25          4.5320     3.7180     1.9250 c3         1 189      -0.092700
     12 C26          5.1240     2.8910     0.7810 c3         1 189       0.114000
     13 N27          6.2920     3.5840     0.2310 n          1 189      -0.488800
     14 C35          6.1400     4.4600    -0.7820 c          1 189       0.661100
     15 O46          5.0350     4.6840    -1.2290 o          1 189      -0.583100
     16 C36          7.3430     5.1600    -1.3590 c3         1 189       0.050400
     17 O37          6.9160     6.1240    -2.3240 os         1 189      -0.288900
     18 C38          8.0380     6.7200    -2.8070 ca         1 189       0.075100
     19 C43          8.6820     6.1920    -3.9160 ca         1 189      -0.090300
     20 C45          8.1380     4.9570    -4.5880 c3         1 189      -0.049300
     21 C42          9.8220     6.8000    -4.4060 ca         1 189      -0.127000
     22 C41         10.3220     7.9330    -3.7900 ca         1 189      -0.123000
     23 C40          9.6820     8.4590    -2.6840 ca         1 189      -0.127000
     24 C39          8.5380     7.8600    -2.1940 ca         1 189      -0.090300
     25 C44          7.8410     8.4350    -0.9890 c3         1 189      -0.049300
     26 C24          3.9460     5.0510     1.3910 c3         1 189       0.144800
     27 N23          2.9380     5.4160     2.4200 n7         1 189      -0.804200
     28 C22          2.2890     4.1480     2.8160 c3         1 189       0.142800
     29 C3          -0.0000    -0.0050     2.3940 ca         1 189      -0.030500
     30 C2          -0.6910    -0.0000     1.1970 ca         1 189      -0.150500
     31 C16          3.3570     2.8650     6.8760 c3         1 189      -0.088600
     32 C17          2.0430     2.1060     6.6910 c3         1 189      -0.095700
     33 C19          1.5670     2.2530     5.2450 c3         1 189       0.234800
     34 C18          0.9850     2.6780     7.6370 c3         1 189      -0.088600
     35 C28          7.6240     3.3240     0.7820 c3         1 189       0.145300
     36 C29          8.2010     2.0900     0.1390 ca         1 189      -0.119300
     37 C34          9.0570     2.2080    -0.9400 ca         1 189      -0.117000
     38 C33          9.5870     1.0750    -1.5290 ca         1 189      -0.124000
     39 C32          9.2610    -0.1760    -1.0390 ca         1 189      -0.121000
     40 C31          8.4050    -0.2940     0.0400 ca         1 189      -0.124000
     41 C30          7.8790     0.8380     0.6320 ca         1 189      -0.117000
     42 H1          -0.5420     0.0020    -0.9380 ha         1 189       0.134000
     43 H6           1.9230     0.0000    -0.9380 ha         1 189       0.137500
     44 H5           3.1570    -0.0000     1.1970 ha         1 189       0.148500
     45 H201         3.9970     3.0360     4.5640 h1         1 189       0.070700
     46 H202         4.4790     1.6070     3.6410 h1         1 189       0.070700
     47 H21          2.8770     2.3150     1.8220 hc         1 189       0.057700
     48 H25          5.2750     3.9090     2.6900 hc         1 189       0.064700
     49 H261         5.4230     1.9200     1.1550 h1         1 189       0.064700
     50 H262         4.3790     2.7660     0.0040 h1         1 189       0.064700
     51 H361         7.9880     4.4330    -1.8370 h1         1 189       0.053200
     52 H362         7.8850     5.6590    -0.5660 h1         1 189       0.053200
     53 H451         7.0560     4.9700    -4.5460 hc         1 189       0.048867
     54 H452         8.5090     4.0760    -4.0790 hc         1 189       0.048867
     55 H453         8.4590     4.9380    -5.6230 hc         1 189       0.048867
     56 H42         10.3250     6.3880    -5.2730 ha         1 189       0.134000
     57 H41         11.2180     8.4070    -4.1740 ha         1 189       0.132000
     58 H40         10.0740     9.3480    -2.2040 ha         1 189       0.134000
     59 H441         8.1170     9.4760    -0.8740 hc         1 189       0.048867
     60 H442         6.7690     8.3580    -1.1210 hc         1 189       0.048867
     61 H443         8.1370     7.8840    -0.1040 hc         1 189       0.048867
     62 H241         3.4700     4.8990     0.4290 h1         1 189       0.058700
     63 H242         4.7180     5.8080     1.3280 h1         1 189       0.058700
     64 H23          2.2560     6.0280     2.0170 hn         1 189       0.349800
     65 H221         2.0490     4.1710     3.8720 h1         1 189       0.043200
     66 H222         1.3900     3.9960     2.2300 h1         1 189       0.043200
     67 H3          -0.5420    -0.0050     3.3320 ha         1 189       0.148500
     68 H2          -1.7750    -0.0020     1.1970 ha         1 189       0.137500
     69 H161         4.1530     2.3420     6.3600 hc         1 189       0.036200
     70 H162         3.5920     2.9290     7.9320 hc         1 189       0.036200
     71 H163         3.2580     3.8640     6.4680 hc         1 189       0.036200
     72 H17          2.1980     1.0570     6.9150 hc         1 189       0.066700
     73 H191         1.5120     3.3040     4.9880 h1         1 189       0.058200
     74 H192         0.5870     1.8030     5.1390 h1         1 189       0.058200
     75 H181         0.0450     2.1640     7.4800 hc         1 189       0.036200
     76 H182         0.8560     3.7350     7.4380 hc         1 189       0.036200
     77 H183         1.3050     2.5400     8.6630 hc         1 189       0.036200
     78 H281         8.2690     4.1710     0.5810 h1         1 189       0.059200
     79 H282         7.5500     3.1730     1.8520 h1         1 189       0.059200
     80 H34          9.3120     3.1880    -1.3240 ha         1 189       0.131000
     81 H33         10.2570     1.1670    -2.3750 ha         1 189       0.134000
     82 H32          9.6750    -1.0640    -1.5020 ha         1 189       0.133000
     83 H31          8.1520    -1.2750     0.4250 ha         1 189       0.134000
     84 H30          7.2090     0.7460     1.4780 ha         1 189       0.131000
@<TRIPOS>BOND
     1     1     2 ar
     2     1    30 ar
     3     1    42 1
     4     2     3 ar
     5     2    43 1
     6     3     4 ar
     7     3    44 1
     8     4     5 1
     9     4    29 ar
    10     5     6 2
    11     5     7 2
    12     5     8 1
    13     8     9 1
    14     8    33 1
    15     9    10 1
    16     9    45 1
    17     9    46 1
    18    10    11 1
    19    10    28 1
    20    10    47 1
    21    11    12 1
    22    11    26 1
    23    11    48 1
    24    12    13 1
    25    12    49 1
    26    12    50 1
    27    13    14 1
    28    13    35 1
    29    14    15 2
    30    14    16 1
    31    16    17 1
    32    16    51 1
    33    16    52 1
    34    17    18 1
    35    18    19 ar
    36    18    24 ar
    37    19    20 1
    38    19    21 ar
    39    20    53 1
    40    20    54 1
    41    20    55 1
    42    21    22 ar
    43    21    56 1
    44    22    23 ar
    45    22    57 1
    46    23    24 ar
    47    23    58 1
    48    24    25 1
    49    25    59 1
    50    25    60 1
    51    25    61 1
    52    26    27 1
    53    26    62 1
    54    26    63 1
    55    27    28 1
    56    27    64 1
    57    28    65 1
    58    28    66 1
    59    29    30 ar
    60    29    67 1
    61    30    68 1
    62    31    32 1
    63    31    69 1
    64    31    70 1
    65    31    71 1
    66    32    33 1
    67    32    34 1
    68    32    72 1
    69    33    73 1
    70    33    74 1
    71    34    75 1
    72    34    76 1
    73    34    77 1
    74    35    36 1
    75    35    78 1
    76    35    79 1
    77    36    37 ar
    78    36    41 ar
    79    37    38 ar
    80    37    80 1
    81    38    39 ar
    82    38    81 1
    83    39    40 ar
    84    39    82 1
    85    40    41 ar
    86    40    83 1
    87    41    84 1
@<TRIPOS>SUBSTRUCTURE
     1 189         1 TEMP              0 ****  ****    0 ROOT
