@<TRIPOS>MOLECULE
molecule
   86    89     1     0     0
SMALL
bcc


@<TRIPOS>ATOM
      1 C1           0.0000     0.0000     0.0000 ca         1 189       0.040000
      2 C6           1.3980     0.0000     0.0000 ca         1 189      -0.146000
      3 C5           2.0920     0.0000     1.2120 ca         1 189       0.026500
      4 C4           1.3770     0.0300     2.4130 ca         1 189      -0.586500
      5 S10          2.2690     0.0480     3.9700 sy         1 189       1.549200
      6 O15          3.6230    -0.3820     3.5630 o          1 189      -0.578800
      7 O14          1.5040    -0.9170     4.7620 o          1 189      -0.578800
      8 N13          2.2810     1.4480     4.7390 nx         1 189      -0.580300
      9 C20          2.6700     2.6900     4.0510 c3         1 189       0.118800
     10 C21          4.1820     2.6060     3.7060 c3         1 189      -0.112700
     11 C25          4.9590     2.7730     5.0390 c3         1 189      -0.092700
     12 C26          6.4330     2.4180     4.8000 c3         1 189       0.100800
     13 N27          6.5980     0.9840     4.5680 nx         1 189      -0.596200
     14 C35          6.8030     0.6340     3.3580 c          1 189       0.519100
     15 O46          7.1260     1.4590     2.4950 o          1 189      -0.390100
     16 C36          6.5830    -0.7550     2.7900 c3         1 189       0.066400
     17 O37          7.3090    -0.8080     1.5630 os         1 189      -0.357900
     18 C38          7.8160    -2.0220     1.1400 ca         1 189       0.028100
     19 C43          7.1850    -2.6340     0.0430 ca         1 189      -0.076300
     20 C45          5.9960    -1.9570    -0.6340 c3         1 189      -0.054300
     21 C42          7.7430    -3.7770    -0.5220 ca         1 189      -0.114500
     22 C41          8.7120    -4.5090     0.1680 ca         1 189      -0.094000
     23 C40          9.3140    -3.9420     1.2920 ca         1 189      -0.114500
     24 C39          8.8930    -2.6780     1.7360 ca         1 189      -0.076300
     25 C44          9.6560    -2.0750     2.9120 c3         1 189      -0.054300
     26 C24          4.8240     4.2880     5.2730 c3         1 189       0.157800
     27 N23          4.9540     4.8900     3.9260 n7         1 189      -0.811200
     28 C22          4.5650     3.8850     2.9260 c3         1 189       0.156800
     29 C3          -0.0170     0.0350     2.4230 ca         1 189       0.026500
     30 C2          -0.7070     0.0050     1.2040 ca         1 189      -0.146000
     31 C16          2.9090     0.8650     7.5990 c3         1 189      -0.104100
     32 C17          1.9870     2.0040     7.1180 c3         1 189      -0.081700
     33 C19          1.2920     1.6580     5.7970 c3         1 189       0.107800
     34 C18          0.9590     2.3140     8.2060 c3         1 189      -0.104100
     35 C28          6.4810    -0.0280     5.5830 c3         1 189       0.198100
     36 C29          7.7970    -0.7620     5.8510 ca         1 189      -0.183300
     37 C34          7.7590    -2.0890     6.2920 ca         1 189      -0.104500
     38 C33          8.9390    -2.7970     6.5340 ca         1 189      -0.111000
     39 C32         10.1680    -2.1600     6.3330 ca         1 189      -0.071000
     40 C31         10.2040    -0.8280     5.9160 ca         1 189      -0.111000
     41 C30          9.0210    -0.1200     5.6780 ca         1 189      -0.104500
     42 H1          -0.5380    -0.0030    -0.9400 ha         1 189       0.189000
     43 H6           1.9410    -0.0130    -0.9370 ha         1 189       0.189000
     44 H5           3.1690     0.1180     1.2190 ha         1 189       0.169000
     45 H201         2.4900     3.5380     4.7000 hx         1 189       0.084200
     46 H202         2.0930     2.7980     3.1410 hx         1 189       0.084200
     47 H21          4.4510     1.6990     3.1780 hc         1 189       0.050700
     48 H25          4.5150     2.1970     5.8420 hc         1 189       0.064700
     49 H261         6.7930     2.9620     3.9340 hx         1 189       0.123200
     50 H262         7.0130     2.7070     5.6670 hx         1 189       0.123200
     51 H361         5.5280    -0.9180     2.6060 h1         1 189       0.118700
     52 H362         6.9600    -1.5020     3.4780 h1         1 189       0.118700
     53 H451         5.1050    -2.1120    -0.0370 hc         1 189       0.048033
     54 H452         6.1900    -0.8950    -0.7250 hc         1 189       0.048033
     55 H453         5.8500    -2.3840    -1.6190 hc         1 189       0.048033
     56 H42          7.4210    -4.1040    -1.5040 ha         1 189       0.159000
     57 H41          8.8530    -5.5610    -0.0500 ha         1 189       0.164000
     58 H40          9.9920    -4.5310     1.8990 ha         1 189       0.159000
     59 H441         9.6170    -0.9940     2.8530 hc         1 189       0.048033
     60 H442         9.2060    -2.4030     3.8410 hc         1 189       0.048033
     61 H443        10.6890    -2.4010     2.8770 hc         1 189       0.048033
     62 H241         5.6180     4.6400     5.9210 h1         1 189       0.069700
     63 H242         3.8540     4.5180     5.6960 h1         1 189       0.069700
     64 H23          4.3480     5.6830     3.8550 hn         1 189       0.396800
     65 H221         3.7140     4.2390     2.3580 h1         1 189       0.063200
     66 H222         5.3990     3.6790     2.2660 h1         1 189       0.063200
     67 H3          -0.5590     0.0480     3.3610 ha         1 189       0.169000
     68 H2          -1.7900     0.0070     1.1960 ha         1 189       0.189000
     69 H161         2.5730     0.5120     8.5660 hc         1 189       0.053033
     70 H162         3.9250     1.2330     7.6810 hc         1 189       0.053033
     71 H163         2.8770     0.0490     6.8860 hc         1 189       0.053033
     72 H17          2.5920     2.8890     6.9610 hc         1 189       0.058700
     73 H191         0.6340     2.4720     5.5150 hx         1 189       0.083700
     74 H192         0.7080     0.7550     5.9260 hx         1 189       0.083700
     75 H181         1.4720     2.6070     9.1140 hc         1 189       0.053033
     76 H182         0.3600     1.4320     8.3980 hc         1 189       0.053033
     77 H183         0.3170     3.1220     7.8760 hc         1 189       0.053033
     78 H281         5.7360    -0.7510     5.2700 hx         1 189       0.086700
     79 H282         6.1490     0.4380     6.5030 hx         1 189       0.086700
     80 H34          6.8030    -2.5720     6.4520 ha         1 189       0.126000
     81 H33          8.9030    -3.8280     6.8660 ha         1 189       0.163000
     82 H32         11.0920    -2.6980     6.5090 ha         1 189       0.168000
     83 H31         11.1590    -0.3370     5.7720 ha         1 189       0.163000
     84 H30          9.0530     0.9530     5.5270 ha         1 189       0.126000
     85 H131         3.1070     1.3150     5.2900 hn         1 189       0.393800
     86 H271         5.6060     0.9090     4.4530 hn         1 189       0.473800
@<TRIPOS>BOND
     1     1     2 ar  
     2     1    30 ar  
     3     1    42 1   
     4     2     3 ar  
     5     2    43 1   
     6     3     4 ar  
     7     3    44 1   
     8     4     5 1   
     9     4    29 ar  
    10     5     6 2   
    11     5     7 2   
    12     5     8 1   
    13     8     9 1   
    14     8    33 1   
    15     9    10 1   
    16     9    45 1   
    17     9    46 1   
    18    10    11 1   
    19    10    28 1   
    20    10    47 1   
    21    11    12 1   
    22    11    26 1   
    23    11    48 1   
    24    12    13 1   
    25    12    49 1   
    26    12    50 1   
    27    13    14 1   
    28    13    35 1   
    29    14    15 2   
    30    14    16 1   
    31    16    17 1   
    32    16    51 1   
    33    16    52 1   
    34    17    18 1   
    35    18    19 ar  
    36    18    24 ar  
    37    19    20 1   
    38    19    21 ar  
    39    20    53 1   
    40    20    54 1   
    41    20    55 1   
    42    21    22 ar  
    43    21    56 1   
    44    22    23 ar  
    45    22    57 1   
    46    23    24 ar  
    47    23    58 1   
    48    24    25 1   
    49    25    59 1   
    50    25    60 1   
    51    25    61 1   
    52    26    27 1   
    53    26    62 1   
    54    26    63 1   
    55    27    28 1   
    56    27    64 1   
    57    28    65 1   
    58    28    66 1   
    59    29    30 ar  
    60    29    67 1   
    61    30    68 1   
    62    31    32 1   
    63    31    69 1   
    64    31    70 1   
    65    31    71 1   
    66    32    33 1   
    67    32    34 1   
    68    32    72 1   
    69    33    73 1   
    70    33    74 1   
    71    34    75 1   
    72    34    76 1   
    73    34    77 1   
    74    35    36 1   
    75    35    78 1   
    76    35    79 1   
    77    36    37 ar  
    78    36    41 ar  
    79    37    38 ar  
    80    37    80 1   
    81    38    39 ar  
    82    38    81 1   
    83    39    40 ar  
    84    39    82 1   
    85    40    41 ar  
    86    40    83 1   
    87    41    84 1   
    88    85     8 1   
    89    86    13 1   
@<TRIPOS>SUBSTRUCTURE
     1 189         1 TEMP              0 ****  ****    0 ROOT
