@<TRIPOS>MOLECULE
18A
   43    46     1     0     0
SMALL
bcc


@<TRIPOS>ATOM
      1 C2           0.0000     0.0000     0.0000 c3         1 18A      -0.127000
      2 C3           1.5070     0.0000     0.0000 c2         1 18A       0.200000
      3 C4           9.9040     1.1840    -2.1470 c3         1 18A       0.047000
      4 O4           2.1130     0.0000     1.0510 o          1 18A      -0.397000
      5 C5          10.5560     1.8870    -3.1630 c2         1 18A      -0.167500
      6 C6           3.5750     0.0990    -1.1680 c2         1 18A      -0.129000
      7 C7           4.2200     0.7990    -2.1820 c2         1 18A      -0.077500
      8 C1          -0.5110    -0.0010     1.4420 c3         1 18A      -0.096000
      9 C8           5.5940     0.8970    -2.1870 c2         1 18A      -0.152500
     10 N5           2.1810     0.0010    -1.1670 ns         1 18A       0.117000
     11 C9           6.3410     0.2920    -1.1720 c3         1 18A       0.021000
     12 C10          5.6880    -0.4110    -0.1550 c2         1 18A      -0.152500
     13 C11          4.3140    -0.5100    -0.1600 c2         1 18A      -0.077500
     14 C12          7.8090     0.4000    -1.1690 c2         1 18A      -0.042000
     15 C13          8.4350     1.0760    -2.1480 c2         1 18A      -0.061000
     16 C14         11.9310     1.9850    -3.1570 c2         1 18A      -0.068500
     17 C15         12.6680     1.3870    -2.1430 c2         1 18A       0.029000
     18 C16         12.0240     0.6870    -1.1310 c2         1 18A      -0.068500
     19 C17         10.6500     0.5790    -1.1320 c2         1 18A      -0.167500
     20 O18         14.0230     1.4870    -2.1420 oh         1 18A      -0.248000
     21 C19         12.8290     0.0400    -0.0340 c3         1 18A      -0.056500
     22 C21         12.6360     2.7420    -4.2530 c3         1 18A      -0.056500
     23 H1          -0.3610     0.8850    -0.5100 hc         1 18A       0.064000
     24 H2          -0.3610    -0.8840    -0.5120 hc         1 18A       0.064000
     25 H3           9.9820     2.3530    -3.9540 ha         1 18A       0.123000
     26 H4           3.6410     1.2680    -2.9690 ha         1 18A       0.125500
     27 H5          -1.5940    -0.0020     1.4410 hc         1 18A       0.048667
     28 H6          -0.1500     0.8830     1.9530 hc         1 18A       0.048667
     29 H7          -0.1500    -0.8860     1.9520 hc         1 18A       0.048667
     30 H8           6.0950     1.4430    -2.9770 ha         1 18A       0.119500
     31 H9           1.6820    -0.0470    -2.0330 hn         1 18A       0.078000
     32 H10          6.2630    -0.8840     0.6330 ha         1 18A       0.119500
     33 H11          3.8080    -1.0550     0.6280 ha         1 18A       0.125500
     34 H12          7.1380     1.1890    -0.8520 DU         1 18A       0.079000
     35 H13          8.9980     1.7550    -1.5190 DU         1 18A       0.072000
     36 H14         10.1480     0.0330    -0.3420 ha         1 18A       0.123000
     37 H15         14.3920     0.7640    -2.6210 ho         1 18A       0.197000
     38 H16         13.4730     0.7790     0.4260 hc         1 18A       0.049000
     39 H17         13.4340    -0.7560    -0.4510 hc         1 18A       0.049000
     40 H18         12.1590    -0.3700     0.7120 hc         1 18A       0.049000
     41 H19         13.2360     2.0560    -4.8380 hc         1 18A       0.049000
     42 H20         13.2760     3.4990    -3.8160 hc         1 18A       0.049000
     43 H21         11.9030     3.2170    -4.8940 hc         1 18A       0.049000
@<TRIPOS>BOND
     1     1     2 1   
     2     1     8 1   
     3     1    23 1   
     4     1    24 1   
     5     2     4 1   
     6     2    10 1   
     7     3     5 1   
     8     3    15 1   
     9     3    19 1   
    10     3    35 1   
    11     5    16 1   
    12     5    25 1   
    13     6     7 1   
    14     6    10 1   
    15     6    13 1   
    16     7     9 1   
    17     7    26 1   
    18     8    27 1   
    19     8    28 1   
    20     8    29 1   
    21     9    11 1   
    22     9    30 1   
    23    10    31 1   
    24    11    12 1   
    25    11    14 1   
    26    11    34 1   
    27    12    13 1   
    28    12    32 1   
    29    13    33 1   
    30    14    15 1   
    31    14    34 1   
    32    15    35 1   
    33    16    17 1   
    34    16    22 1   
    35    17    18 1   
    36    17    20 1   
    37    18    19 1   
    38    18    21 1   
    39    19    36 1   
    40    20    37 1   
    41    21    38 1   
    42    21    39 1   
    43    21    40 1   
    44    22    41 1   
    45    22    42 1   
    46    22    43 1   
@<TRIPOS>SUBSTRUCTURE
     1 18A         1 TEMP              0 ****  ****    0 ROOT
