@<TRIPOS>MOLECULE
18A
   43    44     1     0     0
SMALL
bcc


@<TRIPOS>ATOM
      1 C2           0.3840    -1.0500    -1.2680 c3         1 18A      -0.145400
      2 C3           1.8080    -0.9510    -1.7700 c          1 18A       0.666100
      3 C4          -1.9060     1.7460    -7.9010 ca         1 18A      -0.095800
      4 O4           2.7320    -1.5940    -1.2340 o          1 18A      -0.605100
      5 C5          -3.0580     1.2880    -8.5540 ca         1 18A      -0.087000
      6 C6           1.2450     0.6700    -3.5790 ca         1 18A       0.051600
      7 C7           0.1700     0.1000    -4.2930 ca         1 18A      -0.152500
      8 C1           0.0540     0.1100    -0.3640 c3         1 18A      -0.092100
      9 C8          -0.6750     0.9020    -5.0520 ca         1 18A      -0.104500
     10 N5           2.1370    -0.1230    -2.8320 ns         1 18A      -0.493100
     11 C9          -0.4760     2.2850    -5.1350 ca         1 18A      -0.064800
     12 C10          0.5990     2.8530    -4.4340 ca         1 18A      -0.104500
     13 C11          1.4510     2.0650    -3.6700 ca         1 18A      -0.152500
     14 C12         -1.3740     3.1530    -5.8790 ce         1 18A      -0.114200
     15 C13         -2.0010     2.9130    -7.0390 cf         1 18A      -0.091200
     16 C14         -3.0100     0.1970    -9.4240 ca         1 18A      -0.128800
     17 C15         -1.7710    -0.4320    -9.6490 ca         1 18A       0.127100
     18 C16         -0.5960     0.0190    -9.0100 ca         1 18A      -0.128800
     19 C17         -0.6830     1.1040    -8.1390 ca         1 18A      -0.087000
     20 O18         -1.6170    -1.5110   -10.4910 oh         1 18A      -0.496100
     21 C19          0.6930    -0.6580    -9.2720 c3         1 18A      -0.048800
     22 C21         -4.2420    -0.2780   -10.0950 c3         1 18A      -0.048800
     23 H1          -0.3390    -1.0900    -2.1240 hc         1 18A       0.070700
     24 H2           0.2990    -2.0150    -0.7010 hc         1 18A       0.070700
     25 H3          -4.0190     1.7940    -8.3760 ha         1 18A       0.139000
     26 H4          -0.0020    -0.9880    -4.2660 ha         1 18A       0.140500
     27 H5           0.1110     1.0770    -0.9210 hc         1 18A       0.045033
     28 H6          -0.9820    -0.0060     0.0370 hc         1 18A       0.045033
     29 H7           0.7650     0.1530     0.4970 hc         1 18A       0.045033
     30 H8          -1.5080     0.4420    -5.6080 ha         1 18A       0.142000
     31 H9           3.1070     0.0050    -3.0250 hn         1 18A       0.326500
     32 H10          0.7700     3.9390    -4.4880 ha         1 18A       0.142000
     33 H11          2.2900     2.5370    -3.1370 ha         1 18A       0.140500
     34 H12         -1.5430     4.1320    -5.3900 ha         1 18A       0.126000
     35 H13         -2.6880     3.6910    -7.4280 ha         1 18A       0.125000
     36 H14          0.2240     1.4640    -7.6270 ha         1 18A       0.139000
     37 H15         -2.4800    -1.7240   -10.8750 ho         1 18A       0.421000
     38 H16          0.6150    -1.7430    -9.0100 hc         1 18A       0.046533
     39 H17          0.9460    -0.5890   -10.3610 hc         1 18A       0.046533
     40 H18          1.5210    -0.2010    -8.6790 hc         1 18A       0.046533
     41 H19         -4.1350    -0.2110   -11.2070 hc         1 18A       0.046533
     42 H20         -5.1250     0.3360    -9.7940 hc         1 18A       0.046533
     43 H21         -4.4520    -1.3440    -9.8230 hc         1 18A       0.046533
@<TRIPOS>BOND
     1     1     2 1   
     2     1     8 1   
     3     1    23 1   
     4     1    24 1   
     5     2     4 2   
     6     2    10 1   
     7     3     5 ar  
     8     3    15 1   
     9     3    19 ar  
    10     5    16 ar  
    11     5    25 1   
    12     6     7 ar  
    13     6    10 1   
    14     6    13 ar  
    15     7     9 ar  
    16     7    26 1   
    17     8    27 1   
    18     8    28 1   
    19     8    29 1   
    20     9    11 ar  
    21     9    30 1   
    22    10    31 1   
    23    11    12 ar  
    24    11    14 1   
    25    12    13 ar  
    26    12    32 1   
    27    13    33 1   
    28    14    15 2   
    29    14    34 1   
    30    15    35 1   
    31    16    17 ar  
    32    16    22 1   
    33    17    18 ar  
    34    17    20 1   
    35    18    19 ar  
    36    18    21 1   
    37    19    36 1   
    38    20    37 1   
    39    21    38 1   
    40    21    39 1   
    41    21    40 1   
    42    22    41 1   
    43    22    42 1   
    44    22    43 1   
@<TRIPOS>SUBSTRUCTURE
     1 18A         1 TEMP              0 ****  ****    0 ROOT
