@<TRIPOS>MOLECULE
molecule
   43    44     1     0     0
SMALL
bcc


@<TRIPOS>ATOM
      1 C2           0.0000     0.0000     0.0000 c3         1 18A      -0.159400
      2 C3           1.5070     0.0000     0.0000 c          1 18A       0.657100
      3 C4           9.9040     1.1840    -2.1470 ca         1 18A      -0.055800
      4 O4           2.1130     0.0000     1.0510 o          1 18A      -0.592100
      5 C5          10.5560     1.8870    -3.1630 ca         1 18A      -0.114000
      6 C6           3.5750     0.0990    -1.1680 ca         1 18A       0.055600
      7 C7           4.2200     0.7990    -2.1820 ca         1 18A      -0.144500
      8 C1          -0.5110    -0.0010     1.4420 c3         1 18A      -0.076100
      9 C8           5.5940     0.8970    -2.1870 ca         1 18A      -0.102500
     10 N5           2.1810     0.0010    -1.1670 ns         1 18A      -0.480100
     11 C9           6.3410     0.2920    -1.1720 ca         1 18A      -0.075800
     12 C10          5.6880    -0.4110    -0.1550 ca         1 18A      -0.102500
     13 C11          4.3140    -0.5100    -0.1600 ca         1 18A      -0.144500
     14 C12          7.8090     0.4000    -1.1690 ce         1 18A      -0.103200
     15 C13          8.4350     1.0760    -2.1480 cf         1 18A      -0.115200
     16 C14         11.9310     1.9850    -3.1570 ca         1 18A      -0.099300
     17 C15         12.6680     1.3870    -2.1430 ca         1 18A       0.100100
     18 C16         12.0240     0.6870    -1.1310 ca         1 18A      -0.099300
     19 C17         10.6500     0.5790    -1.1320 ca         1 18A      -0.114000
     20 O18         14.0230     1.4870    -2.1420 oh         1 18A      -0.520100
     21 C19         12.8290     0.0400    -0.0340 c3         1 18A      -0.042300
     22 C21         12.6360     2.7420    -4.2530 c3         1 18A      -0.042300
     23 H1          -0.3610     0.8850    -0.5100 hc         1 18A       0.059700
     24 H2          -0.3610    -0.8840    -0.5120 hc         1 18A       0.059700
     25 H3           9.9820     2.3530    -3.9540 ha         1 18A       0.135500
     26 H4           3.6410     1.2680    -2.9690 ha         1 18A       0.148000
     27 H5          -0.1490     0.8820     1.9540 hc         1 18A       0.045700
     28 H6          -0.1510    -0.8870     1.9520 hc         1 18A       0.045700
     29 H7          -1.5940    -0.0000     1.4410 hc         1 18A       0.045700
     30 H8           6.0950     1.4430    -2.9770 ha         1 18A       0.135000
     31 H9           1.6840    -0.0710    -2.0320 hn         1 18A       0.323500
     32 H10          6.2630    -0.8840     0.6330 ha         1 18A       0.135000
     33 H11          3.8080    -1.0550     0.6280 ha         1 18A       0.148000
     34 H12          8.3850    -0.0660    -0.3790 ha         1 18A       0.134000
     35 H13          7.8590     1.5420    -2.9380 ha         1 18A       0.133000
     36 H14         10.1480     0.0330    -0.3420 ha         1 18A       0.135500
     37 H15         14.3930     0.7460    -2.5920 ho         1 18A       0.417000
     38 H16         13.5130     0.7660     0.3890 hc         1 18A       0.045200
     39 H17         12.1610    -0.3200     0.7390 hc         1 18A       0.045200
     40 H18         13.3910    -0.7920    -0.4410 hc         1 18A       0.045200
     41 H19         13.2820     3.4930    -3.8150 hc         1 18A       0.045200
     42 H20         11.9030     3.2230    -4.8900 hc         1 18A       0.045200
     43 H21         13.2300     2.0540    -4.8430 hc         1 18A       0.045200
@<TRIPOS>BOND
     1    20    17 1   
     2    22    16 1   
     3    17    16 ar  
     4    17    18 ar  
     5    21    18 1   
     6    16     5 ar  
     7    18    19 ar  
     8     5     3 ar  
     9    19     3 ar  
    10     3    15 1   
    11    15    14 2   
    12    14    11 1   
    13    11    12 ar  
    14    11     9 ar  
    15    12    13 ar  
    16     9     7 ar  
    17    13     6 ar  
    18     7     6 ar  
    19     6    10 1   
    20    10     2 1   
    21     8     1 1   
    22     1     2 1   
    23     2     4 2   
    24     1    23 1   
    25     1    24 1   
    26     5    25 1   
    27     7    26 1   
    28     8    27 1   
    29     8    28 1   
    30     8    29 1   
    31     9    30 1   
    32    10    31 1   
    33    12    32 1   
    34    13    33 1   
    35    14    34 1   
    36    15    35 1   
    37    19    36 1   
    38    20    37 1   
    39    21    38 1   
    40    21    39 1   
    41    21    40 1   
    42    22    41 1   
    43    22    42 1   
    44    22    43 1   
@<TRIPOS>SUBSTRUCTURE
     1 18A         1 TEMP              0 ****  ****    0 ROOT
