@<TRIPOS>MOLECULE
molecule
   77    80     1     0     0
SMALL
bcc


@<TRIPOS>ATOM
      1 NA           0.0000     0.0000     0.0000 na         1 18B      -0.139100
      2 NB          -2.6020    -0.8630    -0.4390 ns         1 18B      -0.481100
      3 OB          -4.0270    -1.5270    -2.0940 o          1 18B      -0.636500
      4 NC          -2.0220     2.0370    -2.4110 ns         1 18B      -0.453100
      5 ND           0.4350     0.8000    -2.6140 nc         1 18B      -0.670300
      6 C1A          1.3780     0.0000     0.0000 cc         1 18B      -0.130100
      7 O1A          5.7940     2.6020     2.6470 o          1 18B      -0.850800
      8 C1B         -2.7800    -0.3510     0.8400 cc         1 18B      -0.001400
      9 C1C         -3.2340     2.4710    -2.0300 c          1 18B       0.705700
     10 C1D          0.2770     1.0150    -3.9170 cd         1 18B       0.449900
     11 C2A          1.8080     0.0000     1.3310 cd         1 18B      -0.044300
     12 O2A          5.7290     0.3930     2.6260 o          1 18B      -0.850800
     13 C2B         -4.1740    -0.2590     1.0740 cc         1 18B      -0.031200
     14 C2C         -4.0530     2.6630    -3.1530 cd         1 18B      -0.242400
     15 C2D          1.4820     0.6730    -4.5790 cd         1 18B      -0.288800
     16 C3A          0.6830     0.0010     2.1330 cd         1 18B      -0.145300
     17 C3B         -4.8050    -0.7050    -0.0400 cd         1 18B      -0.215400
     18 C3C         -3.3180     2.3350    -4.2800 cc         1 18B       0.004000
     19 C3D          2.3510     0.2510    -3.6250 cc         1 18B      -0.051200
     20 C4A         -0.4330     0.0010     1.2980 cc         1 18B      -0.084100
     21 C4B         -3.8150    -1.0800    -0.9810 c          1 18B       0.707700
     22 C4C         -1.9910     1.9270    -3.7960 cc         1 18B      -0.002400
     23 C4D          1.6700     0.3390    -2.3830 cc         1 18B       0.018600
     24 CAA          3.2390    -0.0010     1.8040 c3         1 18B      -0.012100
     25 CAB         -6.2950    -0.7870    -0.2430 c3         1 18B      -0.005200
     26 CBA          3.7240     1.4410     1.9640 c3         1 18B      -0.178400
     27 CBB         -6.7990     0.5210    -0.8570 c3         1 18B      -0.092100
     28 CBC         -4.2690     3.5150    -6.1770 c2         1 18B      -0.219000
     29 CGA          5.1550     1.4400     2.4370 c          1 18B       0.893600
     30 CGD          6.1460     0.4770    -3.8500 c          1 18B       0.893600
     31 CHA          2.2000    -0.0020    -1.1300 cf         1 18B       0.128800
     32 CHB         -1.7820     0.0020     1.7210 ce         1 18B      -0.063200
     33 CMA          0.6670     0.0020     3.6400 c3         1 18B      -0.015800
     34 CMB         -4.8370     0.2440     2.3320 c3         1 18B      -0.038900
     35 CMD          1.7480     0.7610    -6.0600 c3         1 18B      -0.014900
     36 HNA         -0.5850    -0.0000    -0.8120 hn         1 18B       0.321700
     37 HNB         -1.7220    -1.0390    -0.8820 hn         1 18B       0.351500
     38 HNC         -1.2610     1.8270    -1.7960 hn         1 18B       0.377500
     39 HAA          3.8600    -0.5120     1.0780 hc         1 18B       0.061700
     40 HAAA         3.3050    -0.5110     2.7570 hc         1 18B       0.061700
     41 HAB         -6.5250    -1.6100    -0.9090 hc         1 18B       0.043700
     42 HABA        -6.7810    -0.9480     0.7120 hc         1 18B       0.043700
     43 HAC         -4.5990     1.8010    -5.2950 ha         1 18B       0.111000
     44 HAD          3.9960    -1.0110    -3.1410 hc         1 18B       0.054200
     45 HADA         3.8710    -0.5940    -4.8550 hc         1 18B       0.054200
     46 HBA          3.6600     1.9520     1.0100 hc         1 18B       0.035700
     47 HBAA         3.1040     1.9530     2.6900 hc         1 18B       0.035700
     48 HBB         -6.2930     1.3570    -0.3900 hc         1 18B       0.036700
     49 HBBA        -7.8670     0.6090    -0.6940 hc         1 18B       0.036700
     50 HBBB        -6.5940     0.5230    -1.9210 hc         1 18B       0.036700
     51 HBC         -5.1620     3.8240    -5.6470 ha         1 18B       0.117000
     52 HBCA        -3.8170     4.3770    -5.7020 ha         1 18B       0.117000
     53 HBD          4.5010     1.7400    -4.3320 hc         1 18B       0.039200
     54 HBDA         4.6280     1.3210    -2.6180 hc         1 18B       0.039200
     55 HHA          3.2170    -0.3670    -1.0560 ha         1 18B       0.192000
     56 HHB         -2.0380     0.3930     2.6980 ha         1 18B       0.157000
     57 HHD         -1.0340     1.4750    -5.6360 ha         1 18B       0.152000
     58 HMA          0.5910     1.0210     4.0000 hc         1 18B       0.039367
     59 HMAA        -0.1840    -0.5700     3.9920 hc         1 18B       0.039367
     60 HMAB         1.5810    -0.4450     4.0120 hc         1 18B       0.039367
     61 HMB         -4.5530     1.2750     2.5030 hc         1 18B       0.047700
     62 HMBA        -5.9130     0.1790     2.2250 hc         1 18B       0.047700
     63 HMBB        -4.5210    -0.3610     3.1730 hc         1 18B       0.047700
     64 HMC         -5.5420     4.1150    -3.6080 hc         1 18B       0.042033
     65 HMCA        -5.8250     3.2160    -2.1110 hc         1 18B       0.042033
     66 HMCB        -6.1050     2.4400    -3.6760 hc         1 18B       0.042033
     67 HMD          0.8500     0.4950    -6.6040 hc         1 18B       0.033033
     68 HMDA         2.0370     1.7740    -6.3150 hc         1 18B       0.033033
     69 HMDB         2.5460     0.0790    -6.3250 hc         1 18B       0.033033
     70 CAD          3.7670    -0.2200    -3.8440 c3         1 18B      -0.017200
     71 CAC         -3.7730     2.3860    -5.6800 ce         1 18B      -0.092000
     72 OC          -3.5750     2.6680    -0.8740 o          1 18B      -0.654500
     73 CBD          4.7310     0.9480    -3.6300 c3         1 18B      -0.178400
     74 CHD         -0.9360     1.5190    -4.5580 cf         1 18B      -0.133600
     75 CMC         -5.4820     3.1420    -3.1360 c3         1 18B      -0.022900
     76 O1D          6.3610    -0.6750    -4.1450 o          1 18B      -0.854300
     77 O2D          7.1670     1.3370    -3.7150 o          1 18B      -0.854300
@<TRIPOS>BOND
     1     1     6 1   
     2     1    20 1   
     3     2     8 1   
     4     2    21 1   
     5     3    21 2   
     6     4     9 1   
     7     4    22 1   
     8    72     9 2   
     9     5    10 2   
    10     5    23 1   
    11     6    11 2   
    12     6    31 1   
    13     7    29 1   
    14     8    13 1   
    15     8    32 2   
    16     9    14 1   
    17    10    15 1   
    18    10    74 1   
    19    76    30 1   
    20    11    16 1   
    21    11    24 1   
    22    12    29 1   
    23    13    17 2   
    24    13    34 1   
    25    14    18 2   
    26    14    75 1   
    27    15    19 2   
    28    15    35 1   
    29    77    30 1   
    30    16    20 2   
    31    16    33 1   
    32    17    21 1   
    33    17    25 1   
    34    18    22 1   
    35    18    71 1   
    36    19    23 1   
    37    19    70 1   
    38    20    32 1   
    39    22    74 2   
    40    23    31 2   
    41    24    26 1   
    42    25    27 1   
    43    71    28 2   
    44    70    73 1   
    45    26    29 1   
    46    73    30 1   
    47     1    36 1   
    48     2    37 1   
    49     4    38 1   
    50    24    39 1   
    51    24    40 1   
    52    25    41 1   
    53    25    42 1   
    54    71    43 1   
    55    70    44 1   
    56    70    45 1   
    57    26    46 1   
    58    26    47 1   
    59    27    48 1   
    60    27    49 1   
    61    27    50 1   
    62    28    51 1   
    63    28    52 1   
    64    73    53 1   
    65    73    54 1   
    66    31    55 1   
    67    32    56 1   
    68    74    57 1   
    69    33    58 1   
    70    33    59 1   
    71    33    60 1   
    72    34    61 1   
    73    34    62 1   
    74    34    63 1   
    75    75    64 1   
    76    75    65 1   
    77    75    66 1   
    78    35    67 1   
    79    35    68 1   
    80    35    69 1   
@<TRIPOS>SUBSTRUCTURE
     1 18B         1 TEMP              0 ****  ****    0 ROOT
