@<TRIPOS>MOLECULE
18B
   77    80     1     0     0
SMALL
bcc


@<TRIPOS>ATOM
      1 NA           0.0000     0.0000     0.0000 na         1 18B       0.409900
      2 NB          -2.6020    -0.8630    -0.4390 ns         1 18B      -0.058100
      3 OB          -4.0270    -1.5270    -2.0940 o          1 18B      -0.681500
      4 NC          -2.0220     2.0370    -2.4110 ns         1 18B      -0.023100
      5 ND           0.4350     0.8000    -2.6140 nc         1 18B      -0.600300
      6 C1A          1.3780     0.0000     0.0000 cc         1 18B      -0.331100
      7 O1A          5.7940     2.6020     2.6470 o          1 18B      -0.900300
      8 C1B         -2.7800    -0.3510     0.8400 cc         1 18B      -0.168400
      9 C1C         -3.2340     2.4710    -2.0300 c          1 18B       0.601700
     10 C1D          0.2770     1.0150    -3.9170 cd         1 18B       0.422900
     11 C2A          1.8080     0.0000     1.3310 cd         1 18B      -0.038300
     12 O2A          5.7290     0.3930     2.6260 o          1 18B      -0.900300
     13 C2B         -4.1740    -0.2590     1.0740 cc         1 18B      -0.024200
     14 C2C         -4.0530     2.6630    -3.1530 cd         1 18B      -0.217400
     15 C2D          1.4820     0.6730    -4.5790 cd         1 18B      -0.300800
     16 C3A          0.6830     0.0010     2.1330 cd         1 18B      -0.146300
     17 C3B         -4.8050    -0.7050    -0.0400 cd         1 18B      -0.239400
     18 C3C         -3.3180     2.3350    -4.2800 cc         1 18B      -0.021000
     19 C3D          2.3510     0.2510    -3.6250 cc         1 18B      -0.039200
     20 C4A         -0.4330     0.0010     1.2980 cc         1 18B      -0.292100
     21 C4B         -3.8150    -1.0800    -0.9810 c          1 18B       0.622700
     22 C4C         -1.9910     1.9270    -3.7960 cc         1 18B      -0.132400
     23 C4D          1.6700     0.3390    -2.3830 cc         1 18B      -0.035400
     24 CAA          3.2390    -0.0010     1.8040 c3         1 18B       0.050900
     25 CAB         -6.2950    -0.7870    -0.2430 c3         1 18B       0.069800
     26 CBA          3.7240     1.4410     1.9640 c3         1 18B      -0.131400
     27 CBB         -6.7990     0.5210    -0.8570 c3         1 18B      -0.008100
     28 CBC         -4.2690     3.5150    -6.1770 c2         1 18B      -0.170000
     29 CGA          5.1550     1.4400     2.4370 c          1 18B       0.982600
     30 CGD          6.1460     0.4770    -3.8500 c          1 18B       0.983600
     31 CHA          2.2000    -0.0020    -1.1300 cf         1 18B       0.205800
     32 CHB         -1.7820     0.0020     1.7210 ce         1 18B       0.010800
     33 CMA          0.6670     0.0020     3.6400 c3         1 18B       0.095200
     34 CMB         -4.8370     0.2440     2.3320 c3         1 18B       0.071100
     35 CMD          1.7480     0.7610    -6.0600 c3         1 18B       0.094100
     36 HNA         -0.5850     0.0000    -0.8120 hn         1 18B       0.151700
     37 HNB         -1.7220    -1.0390    -0.8820 hn         1 18B       0.195500
     38 HNC         -1.2610     1.8270    -1.7960 hn         1 18B       0.219500
     39 HAA          3.8600    -0.5120     1.0780 hc         1 18B       0.032700
     40 HAAA         3.3050    -0.5110     2.7570 hc         1 18B       0.032700
     41 HAB         -6.5250    -1.6100    -0.9090 hc         1 18B       0.011200
     42 HABA        -6.7810    -0.9480     0.7120 hc         1 18B       0.011200
     43 HAC         -3.7380     1.4940    -6.2940 ha         1 18B       0.106000
     44 HAD          3.8710    -0.5940    -4.8550 hc         1 18B       0.027200
     45 HADA         3.9960    -1.0110    -3.1410 hc         1 18B       0.027200
     46 HBA          3.1040     1.9530     2.6900 hc         1 18B       0.010200
     47 HBAA         3.6600     1.9520     1.0100 hc         1 18B       0.010200
     48 HBB         -7.8680     0.6050    -0.7010 hc         1 18B       0.007033
     49 HBBA        -6.5870     0.5260    -1.9190 hc         1 18B       0.007033
     50 HBBB        -6.2990     1.3580    -0.3840 hc         1 18B       0.007033
     51 HBC         -4.6040     3.5520    -7.2070 ha         1 18B       0.084500
     52 HBCA        -4.2770     4.4140    -5.5730 ha         1 18B       0.084500
     53 HBD          4.5010     1.7400    -4.3320 hc         1 18B       0.014700
     54 HBDA         4.6280     1.3210    -2.6180 hc         1 18B       0.014700
     55 HHA          3.2170    -0.3670    -1.0560 ha         1 18B       0.149000
     56 HHB         -2.0380     0.3930     2.6980 ha         1 18B       0.123000
     57 HHD         -1.0340     1.4750    -5.6360 ha         1 18B       0.113000
     58 HMA          0.6060     1.0220     4.0000 hc         1 18B       0.004700
     59 HMAA         1.5740    -0.4590     4.0120 hc         1 18B       0.004700
     60 HMAB        -0.1920    -0.5570     3.9920 hc         1 18B       0.004700
     61 HMB         -4.4780    -0.3250     3.1810 hc         1 18B       0.011700
     62 HMBA        -5.9100     0.1270     2.2470 hc         1 18B       0.011700
     63 HMBB        -4.5980     1.2910     2.4720 hc         1 18B       0.011700
     64 HMC         -6.1140     2.4090    -3.6200 hc         1 18B       0.007367
     65 HMCA        -5.5530     4.0850    -3.6640 hc         1 18B       0.007367
     66 HMCB        -5.8050     3.2770    -2.1110 hc         1 18B       0.007367
     67 HMD          2.7720     0.4720    -6.2620 hc         1 18B       0.000700
     68 HMDA         1.0740     0.0970    -6.5880 hc         1 18B       0.000700
     69 HMDB         1.5870     1.7790    -6.3950 hc         1 18B       0.000700
     70 CAD          3.7670    -0.2200    -3.8440 c3         1 18B       0.044800
     71 CAC         -3.7730     2.3860    -5.6800 ce         1 18B      -0.063000
     72 OC          -3.5750     2.6680    -0.8740 o          1 18B      -0.699500
     73 CBD          4.7310     0.9480    -3.6300 c3         1 18B      -0.133400
     74 CHD         -0.9360     1.5190    -4.5580 cf         1 18B      -0.107600
     75 CMC         -5.4820     3.1420    -3.1360 c3         1 18B       0.089100
     76 O1D          6.3610    -0.6750    -4.1450 o          1 18B      -0.903300
     77 O2D          7.1670     1.3370    -3.7150 o          1 18B      -0.903300
@<TRIPOS>BOND
     1     1     6 1   
     2     1    20 1   
     3     1    36 1   
     4     2     8 1   
     5     2    21 1   
     6     2    37 1   
     7     3    21 2   
     8     4     9 1   
     9     4    22 1   
    10     4    38 1   
    11     5    10 2   
    12     5    23 1   
    13     6    11 2   
    14     6    31 1   
    15     7    29 1   
    16     8    13 1   
    17     8    32 2   
    18     9    14 1   
    19     9    72 2   
    20    10    15 1   
    21    10    74 1   
    22    11    16 1   
    23    11    24 1   
    24    12    29 1   
    25    13    17 2   
    26    13    34 1   
    27    14    18 2   
    28    14    75 1   
    29    15    19 2   
    30    15    35 1   
    31    16    20 2   
    32    16    33 1   
    33    17    21 1   
    34    17    25 1   
    35    18    22 1   
    36    18    71 1   
    37    19    23 1   
    38    19    70 1   
    39    20    32 1   
    40    22    74 2   
    41    23    31 2   
    42    24    26 1   
    43    24    39 1   
    44    24    40 1   
    45    25    27 1   
    46    25    41 1   
    47    25    42 1   
    48    26    29 1   
    49    26    46 1   
    50    26    47 1   
    51    27    48 1   
    52    27    49 1   
    53    27    50 1   
    54    28    51 1   
    55    28    52 1   
    56    28    71 2   
    57    30    73 1   
    58    30    76 1   
    59    30    77 1   
    60    31    55 1   
    61    32    56 1   
    62    33    58 1   
    63    33    59 1   
    64    33    60 1   
    65    34    61 1   
    66    34    62 1   
    67    34    63 1   
    68    35    67 1   
    69    35    68 1   
    70    35    69 1   
    71    43    71 1   
    72    44    70 1   
    73    45    70 1   
    74    53    73 1   
    75    54    73 1   
    76    57    74 1   
    77    64    75 1   
    78    65    75 1   
    79    66    75 1   
    80    70    73 1   
@<TRIPOS>SUBSTRUCTURE
     1 18B         1 TEMP              0 ****  ****    0 ROOT
