@<TRIPOS>MOLECULE
18B
   77    80     1     0     0
SMALL
bcc


@<TRIPOS>ATOM
      1 NA           0.2350     0.1480    -0.0620 na         1 18B      -0.149100
      2 NB          -2.4360     1.7990    -0.2130 ns         1 18B      -0.472100
      3 OB          -3.7550     3.4060    -1.3060 o          1 18B      -0.629500
      4 NC          -1.9280    -0.8510    -3.8880 ns         1 18B      -0.476100
      5 ND           0.8700    -0.0210    -2.9460 nc         1 18B      -0.625300
      6 C1A          1.6090    -0.1030     0.0250 cc         1 18B      -0.112100
      7 O1A          3.4790    -1.3130     4.7450 o          1 18B      -0.853300
      8 C1B         -2.6320     0.9320     0.8970 cc         1 18B      -0.030400
      9 C1C         -3.2780    -1.1520    -4.1140 c          1 18B       0.693700
     10 C1D          0.9940     0.0740    -4.2690 cd         1 18B       0.463900
     11 C2A          1.9270    -0.3700     1.3910 cd         1 18B      -0.060300
     12 O2A          4.9800     0.3100     5.0280 o          1 18B      -0.853300
     13 C2B         -4.0770     1.0120     1.2620 cc         1 18B      -0.025200
     14 C2C         -3.5750    -0.7730    -5.5460 cd         1 18B      -0.169400
     15 C2D          2.4190     0.1650    -4.6880 cd         1 18B      -0.247800
     16 C3A          0.7010    -0.3210     2.1240 cd         1 18B      -0.094300
     17 C3B         -4.6820     1.9300     0.4540 cd         1 18B      -0.197400
     18 C3C         -2.4260    -0.2820    -6.1020 cc         1 18B      -0.021000
     19 C3D          3.1690     0.0940    -3.5350 cc         1 18B      -0.032200
     20 C4A         -0.3330    -0.0010     1.2010 cc         1 18B      -0.126100
     21 C4B         -3.6340     2.5030    -0.4650 c          1 18B       0.691700
     22 C4C         -1.3470    -0.3110    -5.0590 cc         1 18B       0.043600
     23 C4D          2.1960    -0.0090    -2.4040 cc         1 18B       0.030600
     24 CAA          3.2460    -0.6710     1.9740 c3         1 18B      -0.022100
     25 CAB         -6.0870     2.3540     0.3790 c3         1 18B      -0.010200
     26 CBA          3.6930     0.3550     3.0000 c3         1 18B      -0.192400
     27 CBB         -6.2650     3.8140     0.7260 c3         1 18B      -0.093100
     28 CBC         -3.1240     0.6170    -8.2840 c2         1 18B      -0.210000
     29 CGA          4.0850    -0.2710     4.3500 c          1 18B       0.905600
     30 CGD          6.3220    -0.5950    -5.1990 c          1 18B       0.905600
     31 CHA          2.5140    -0.0730    -1.0850 cf         1 18B       0.039800
     32 CHB         -1.7210     0.1510     1.5200 ce         1 18B      -0.051200
     33 CMA          0.5360    -0.5430     3.5610 c3         1 18B      -0.062800
     34 CMB         -4.6540     0.1780     2.3200 c3         1 18B      -0.053900
     35 CMD          2.8780     0.3070    -6.0690 c3         1 18B      -0.060900
     36 HNA         -0.2730     0.2300    -0.9060 hn         1 18B       0.314700
     37 HNB         -1.5440     2.1620    -0.4430 hn         1 18B       0.336500
     38 HNC         -1.4520    -0.9490    -3.0270 hn         1 18B       0.364500
     39 HAA          4.0160    -0.7580     1.1630 hc         1 18B       0.059200
     40 HAAA         3.1800    -1.6760     2.4870 hc         1 18B       0.059200
     41 HAB         -6.7150     1.7240     1.0650 hc         1 18B       0.045200
     42 HABA        -6.4560     2.1790    -0.6700 hc         1 18B       0.045200
     43 HAC         -1.1220     0.1600    -7.7610 ha         1 18B       0.138000
     44 HAD          4.9440     0.1920    -2.3490 hc         1 18B       0.060200
     45 HADA         4.9920     1.0960    -3.9240 hc         1 18B       0.060200
     46 HBA          2.8680     1.0830     3.2120 hc         1 18B       0.031700
     47 HBAA         4.5640     0.9350     2.6060 hc         1 18B       0.031700
     48 HBB         -7.3340     4.1100     0.5990 hc         1 18B       0.036700
     49 HBBA        -5.9650     4.0110     1.7830 hc         1 18B       0.036700
     50 HBBB        -5.6330     4.4470     0.0540 hc         1 18B       0.036700
     51 HBC         -2.8780     0.9560    -9.2980 ha         1 18B       0.111500
     52 HBCA        -4.1860     0.6760    -8.0140 ha         1 18B       0.111500
     53 HBD          5.8750    -1.6360    -3.3480 hc         1 18B       0.033700
     54 HBDA         4.5750    -1.6930    -4.6010 hc         1 18B       0.033700
     55 HHA          3.5850    -0.1060    -0.8030 ha         1 18B       0.162000
     56 HHB         -2.0450    -0.4270     2.4060 ha         1 18B       0.148000
     57 HHD          0.2360     0.4740    -6.2340 ha         1 18B       0.148000
     58 HMA          0.2620     0.4120     4.0760 hc         1 18B       0.059700
     59 HMAA        -0.2770    -1.2880     3.7550 hc         1 18B       0.059700
     60 HMAB         1.4980    -0.9220     4.0160 hc         1 18B       0.059700
     61 HMB         -4.1400     0.3800     3.2950 hc         1 18B       0.051367
     62 HMBA        -5.7460     0.3790     2.4460 hc         1 18B       0.051367
     63 HMBB        -4.5170    -0.9060     2.0720 hc         1 18B       0.051367
     64 HMC         -4.8480    -1.3640    -7.1540 hc         1 18B       0.048367
     65 HMCA        -5.4630     0.0090    -6.1400 hc         1 18B       0.048367
     66 HMCB        -5.4960    -1.6810    -5.4790 hc         1 18B       0.048367
     67 HMD          2.4510     1.2330    -6.5320 hc         1 18B       0.055700
     68 HMDA         4.0050     0.3760    -6.1010 hc         1 18B       0.055700
     69 HMDB         2.5560    -0.5700    -6.6840 hc         1 18B       0.055700
     70 CAD          4.6360     0.1440    -3.4270 c3         1 18B      -0.034200
     71 CAC         -2.1810     0.1810    -7.4430 ce         1 18B      -0.108000
     72 OC          -4.0520    -1.6510    -3.2830 o          1 18B      -0.627500
     73 CBD          5.3270    -1.0250    -4.1070 c3         1 18B      -0.191400
     74 CHD         -0.0720     0.0950    -5.2430 cf         1 18B      -0.188600
     75 CMC         -4.9090    -0.9660    -6.1100 c3         1 18B      -0.037900
     76 O1D          6.1410     0.5030    -5.8070 o          1 18B      -0.852800
     77 O2D          7.2730    -1.3850    -5.4650 o          1 18B      -0.852800
@<TRIPOS>BOND
     1     1     6 1   
     2     1    20 1   
     3     1    36 1   
     4     2     8 1   
     5     2    21 1   
     6     2    37 1   
     7     3    21 2   
     8     4     9 1   
     9     4    22 1   
    10     4    38 1   
    11     5    10 2   
    12     5    23 1   
    13     6    11 2   
    14     6    31 1   
    15     7    29 1   
    16     8    13 1   
    17     8    32 2   
    18     9    14 1   
    19     9    72 2   
    20    10    15 1   
    21    10    74 1   
    22    11    16 1   
    23    11    24 1   
    24    12    29 1   
    25    13    17 2   
    26    13    34 1   
    27    14    18 2   
    28    14    75 1   
    29    15    19 2   
    30    15    35 1   
    31    16    20 2   
    32    16    33 1   
    33    17    21 1   
    34    17    25 1   
    35    18    22 1   
    36    18    71 1   
    37    19    23 1   
    38    19    70 1   
    39    20    32 1   
    40    22    74 2   
    41    23    31 2   
    42    24    26 1   
    43    24    39 1   
    44    24    40 1   
    45    25    27 1   
    46    25    41 1   
    47    25    42 1   
    48    26    29 1   
    49    26    46 1   
    50    26    47 1   
    51    27    48 1   
    52    27    49 1   
    53    27    50 1   
    54    28    51 1   
    55    28    52 1   
    56    28    71 2   
    57    30    73 1   
    58    30    76 1   
    59    30    77 1   
    60    31    55 1   
    61    32    56 1   
    62    33    58 1   
    63    33    59 1   
    64    33    60 1   
    65    34    61 1   
    66    34    62 1   
    67    34    63 1   
    68    35    67 1   
    69    35    68 1   
    70    35    69 1   
    71    43    71 1   
    72    44    70 1   
    73    45    70 1   
    74    53    73 1   
    75    54    73 1   
    76    57    74 1   
    77    64    75 1   
    78    65    75 1   
    79    66    75 1   
    80    70    73 1   
@<TRIPOS>SUBSTRUCTURE
     1 18B         1 TEMP              0 ****  ****    0 ROOT
