@<TRIPOS>MOLECULE
molecule
  111   110     1     0     0
SMALL
bcc


@<TRIPOS>ATOM
      1 O19          0.0000     0.0000     0.0000 o          1 18C      -0.599100
      2 C19          1.2290     0.0000     0.0000 c          1 18C       0.671100
      3 N2           2.0350     0.0000     1.1250 ns         1 18C      -0.580900
      4 C2           1.5100    -0.0000     2.4720 c3         1 18C       0.129700
      5 C1           2.4870    -0.7600     3.3790 c3         1 18C       0.133400
      6 O1           2.6880    -2.0800     2.8950 oh         1 18C      -0.608800
      7 C3           1.2680     1.4650     2.9050 c3         1 18C       0.176300
      8 C4           0.6430     1.5960     4.2670 c2         1 18C      -0.210200
      9 C5          -0.4820     2.2530     4.5870 c2         1 18C      -0.146200
     10 C6          -1.1070     2.3850     5.9460 c3         1 18C      -0.038200
     11 C7          -1.1890     3.8500     6.3750 c3         1 18C      -0.073400
     12 C8          -1.8250     4.0450     7.7550 c3         1 18C      -0.078400
     13 C9          -1.9910     5.4960     8.2150 c3         1 18C      -0.076400
     14 C10         -2.6100     5.6280     9.6090 c3         1 18C      -0.076400
     15 C11         -2.7740     7.0970    10.0070 c3         1 18C      -0.076400
     16 C12         -3.4220     7.2280    11.3860 c3         1 18C      -0.078400
     17 C13         -3.5460     8.6760    11.8670 c3         1 18C      -0.078400
     18 C14         -4.1270     8.8020    13.2770 c3         1 18C      -0.077400
     19 C15         -4.2390    10.2680    13.7010 c3         1 18C      -0.079400
     20 C16         -4.7840    10.3960    15.1240 c3         1 18C      -0.079400
     21 C17         -4.9280    11.8610    15.5360 c3         1 18C      -0.082400
     22 C18         -5.5010    11.9930    16.9380 c3         1 18C      -0.090100
     23 O3           2.5290     2.1430     2.9840 oh         1 18C      -0.613800
     24 C20          2.0220    -0.0040    -1.2930 c3         1 18C      -0.162400
     25 C21          1.1230    -0.0040    -2.5300 c3         1 18C      -0.066400
     26 C22          1.9290     0.0070    -3.8330 c3         1 18C      -0.079400
     27 C23          1.0510     0.0180    -5.0890 c3         1 18C      -0.077400
     28 C24          1.8550     0.0520    -6.3900 c3         1 18C      -0.077400
     29 C25          0.9330     0.0390    -7.6110 c3         1 18C      -0.078400
     30 C26          1.7340     0.1050    -8.9140 c3         1 18C      -0.077400
     31 C27          0.8110     0.0590   -10.1340 c3         1 18C      -0.078400
     32 C28          1.5550     0.1950   -11.4660 c3         1 18C      -0.078400
     33 C29          0.6260     0.2230   -12.6820 c3         1 18C      -0.076400
     34 C30          1.4160     0.4330   -13.9770 c3         1 18C      -0.075400
     35 C31          0.4940     0.4290   -15.1950 c3         1 18C      -0.077400
     36 C32          1.2190     0.6010   -16.5350 c3         1 18C      -0.077400
     37 C33          0.2970     0.6740   -17.7570 c3         1 18C      -0.077400
     38 C34          1.0490     0.9770   -19.0560 c3         1 18C      -0.077400
     39 C35          0.0810     1.1500   -20.2270 c3         1 18C      -0.082400
     40 C36          0.8170     1.5080   -21.5090 c3         1 18C      -0.090100
     41 H361         0.1040     1.6100   -22.3180 hc         1 18C       0.033033
     42 H362         1.3450     2.4450   -21.3730 hc         1 18C       0.033033
     43 H363         1.5270     0.7260   -21.7480 hc         1 18C       0.033033
     44 H351        -0.4620     0.2250   -20.3770 hc         1 18C       0.038700
     45 H352        -0.6220     1.9390   -19.9910 hc         1 18C       0.038700
     46 H341         1.6210     1.8880   -18.9310 hc         1 18C       0.039700
     47 H342         1.7260     0.1590   -19.2730 hc         1 18C       0.039700
     48 H331        -0.2150    -0.2740   -17.8640 hc         1 18C       0.037700
     49 H332        -0.4400     1.4520   -17.5920 hc         1 18C       0.037700
     50 H321         1.8960    -0.2340   -16.6670 hc         1 18C       0.036700
     51 H322         1.8030     1.5130   -16.4930 hc         1 18C       0.036700
     52 H311        -0.2220     1.2350   -15.0860 hc         1 18C       0.037700
     53 H312        -0.0450    -0.5100   -15.2150 hc         1 18C       0.037700
     54 H301         2.1440    -0.3630   -14.0810 hc         1 18C       0.039700
     55 H302         1.9330     1.3830   -13.9260 hc         1 18C       0.039700
     56 H291        -0.0870     1.0300   -12.5660 hc         1 18C       0.039700
     57 H292         0.0900    -0.7170   -12.7410 hc         1 18C       0.039700
     58 H281         2.1310     1.1120   -11.4480 hc         1 18C       0.037700
     59 H282         2.2360    -0.6410   -11.5690 hc         1 18C       0.037700
     60 H271         0.2780    -0.8840   -10.1290 hc         1 18C       0.038200
     61 H272         0.0910     0.8650   -10.0550 hc         1 18C       0.038200
     62 H261         2.4170    -0.7350    -8.9540 hc         1 18C       0.039700
     63 H262         2.3030     1.0270    -8.9350 hc         1 18C       0.039700
     64 H251         0.2660     0.8910    -7.5610 hc         1 18C       0.040700
     65 H252         0.3450    -0.8710    -7.6010 hc         1 18C       0.040700
     66 H241         2.4580     0.9520    -6.4110 hc         1 18C       0.039200
     67 H242         2.5060    -0.8130    -6.4280 hc         1 18C       0.039200
     68 H231         0.4090     0.8890    -5.0550 hc         1 18C       0.041200
     69 H232         0.4320    -0.8710    -5.0870 hc         1 18C       0.041200
     70 H221         2.5600     0.8870    -3.8440 hc         1 18C       0.035700
     71 H222         2.5590    -0.8740    -3.8580 hc         1 18C       0.035700
     72 H211         0.4890     0.8740    -2.5020 hc         1 18C       0.054700
     73 H212         0.4990    -0.8890    -2.5100 hc         1 18C       0.054700
     74 H201         2.6540     0.8750    -1.3190 hc         1 18C       0.059200
     75 H202         2.6480    -0.8880    -1.3160 hc         1 18C       0.059200
     76 HN2          3.0280     0.0000     1.0010 hn         1 18C       0.324500
     77 H2           0.5610    -0.5220     2.4740 h1         1 18C       0.089700
     78 H11          3.4360    -0.2380     3.3990 h1         1 18C       0.034700
     79 H12          2.0820    -0.8050     4.3830 h1         1 18C       0.034700
     80 HO1          3.1200    -2.5950     3.5560 ho         1 18C       0.406000
     81 H3           0.6400     1.9580     2.1720 h1         1 18C       0.054700
     82 HO3          2.4220     3.0390     2.7140 ho         1 18C       0.405000
     83 H4           1.1700     1.0990     5.0730 ha         1 18C       0.119000
     84 H5          -1.0080     2.7500     3.7810 ha         1 18C       0.112000
     85 H61         -0.5100     1.8370     6.6650 hc         1 18C       0.048700
     86 H62         -2.1050     1.9660     5.9190 hc         1 18C       0.048700
     87 H71         -0.1870     4.2630     6.3940 hc         1 18C       0.040700
     88 H72         -1.7750     4.3940     5.6440 hc         1 18C       0.040700
     89 H81         -2.8040     3.5810     7.7440 hc         1 18C       0.036700
     90 H82         -1.2130     3.5280     8.4850 hc         1 18C       0.036700
     91 H91         -2.6240     6.0150     7.5050 hc         1 18C       0.038700
     92 H92         -1.0170     5.9710     8.2230 hc         1 18C       0.038700
     93 H101        -3.5820     5.1490     9.6120 hc         1 18C       0.039700
     94 H102        -1.9700     5.1340    10.3290 hc         1 18C       0.039700
     95 H111        -1.7990     7.5700    10.0260 hc         1 18C       0.039700
     96 H112        -3.3960     7.5960     9.2730 hc         1 18C       0.039700
     97 H121        -2.8270     6.6740    12.1030 hc         1 18C       0.037700
     98 H122        -4.4130     6.7900    11.3460 hc         1 18C       0.037700
     99 H131        -2.5630     9.1300    11.8560 hc         1 18C       0.037700
    100 H132        -4.1860     9.2160    11.1800 hc         1 18C       0.037700
    101 H141        -3.4830     8.2790    13.9740 hc         1 18C       0.039700
    102 H142        -5.1120     8.3510    13.2970 hc         1 18C       0.039700
    103 H151        -3.2580    10.7260    13.6550 hc         1 18C       0.039700
    104 H152        -4.9030    10.7850    13.0190 hc         1 18C       0.039700
    105 H161        -4.1060     9.9000    15.8090 hc         1 18C       0.039700
    106 H162        -5.7540     9.9160    15.1760 hc         1 18C       0.039700
    107 H171        -5.5860    12.3620    14.8360 hc         1 18C       0.038200
    108 H172        -3.9540    12.3340    15.5060 hc         1 18C       0.038200
    109 H181        -5.5830    13.0410    17.1970 hc         1 18C       0.033033
    110 H182        -4.8470    11.4960    17.6440 hc         1 18C       0.033033
    111 H183        -6.4820    11.5350    16.9710 hc         1 18C       0.033033
@<TRIPOS>BOND
     1     1     2 2
     2     2    24 1
     3     2     3 1
     4     3     4 1
     5     3    76 1
     6     4     5 1
     7     4     7 1
     8     4    77 1
     9     5     6 1
    10     5    78 1
    11     5    79 1
    12     6    80 1
    13     7    23 1
    14     7     8 1
    15     7    81 1
    16     8     9 2
    17     8    83 1
    18     9    10 1
    19     9    84 1
    20    10    11 1
    21    10    85 1
    22    10    86 1
    23    11    12 1
    24    11    87 1
    25    11    88 1
    26    12    13 1
    27    12    89 1
    28    12    90 1
    29    13    14 1
    30    13    91 1
    31    13    92 1
    32    14    15 1
    33    14    93 1
    34    14    94 1
    35    15    16 1
    36    15    95 1
    37    15    96 1
    38    16    17 1
    39    16    97 1
    40    16    98 1
    41    17    18 1
    42    17    99 1
    43    17   100 1
    44    18    19 1
    45    18   101 1
    46    18   102 1
    47    19    20 1
    48    19   103 1
    49    19   104 1
    50    20    21 1
    51    20   105 1
    52    20   106 1
    53    21    22 1
    54    21   107 1
    55    21   108 1
    56    22   109 1
    57    22   110 1
    58    22   111 1
    59    23    82 1
    60    24    25 1
    61    24    74 1
    62    24    75 1
    63    25    26 1
    64    25    72 1
    65    25    73 1
    66    26    27 1
    67    26    70 1
    68    26    71 1
    69    27    28 1
    70    27    68 1
    71    27    69 1
    72    28    29 1
    73    28    66 1
    74    28    67 1
    75    29    30 1
    76    29    64 1
    77    29    65 1
    78    30    31 1
    79    30    62 1
    80    30    63 1
    81    31    32 1
    82    31    60 1
    83    31    61 1
    84    32    33 1
    85    32    58 1
    86    32    59 1
    87    33    34 1
    88    33    56 1
    89    33    57 1
    90    34    35 1
    91    34    54 1
    92    34    55 1
    93    35    36 1
    94    35    52 1
    95    35    53 1
    96    36    37 1
    97    36    50 1
    98    36    51 1
    99    37    38 1
   100    37    48 1
   101    37    49 1
   102    38    39 1
   103    38    46 1
   104    38    47 1
   105    39    40 1
   106    39    44 1
   107    39    45 1
   108    40    41 1
   109    40    42 1
   110    40    43 1
@<TRIPOS>SUBSTRUCTURE
     1 18C         1 TEMP              0 ****  ****    0 ROOT
