@<TRIPOS>MOLECULE
18C
  112   111     1     0     0
SMALL
bcc


@<TRIPOS>ATOM
      1 O19          0.4930    -2.1240     0.2190 o          1 18C      -0.420100
      2 C19          1.0940    -1.3000    -0.4540 c          1 18C       0.550100
      3 N2           0.9870     0.1430    -0.0310 ny         1 18C      -0.669800
      4 C2          -0.1440     0.4300     0.9150 c3         1 18C       0.128500
      5 C1           0.1880     0.0600     2.3730 c3         1 18C       0.114400
      6 O1           1.5130     0.4770     2.6560 oh         1 18C      -0.633800
      7 C3          -0.5820     1.9140     0.7790 c3         1 18C       0.170300
      8 C4           0.5290     2.8610     1.0770 c2         1 18C      -0.294200
      9 C5           0.8650     3.8980     0.3050 c2         1 18C      -0.098200
     10 C6           1.9360     4.8660     0.6390 c3         1 18C      -0.064200
     11 C7           1.4380     6.2930     0.5040 c3         1 18C      -0.078400
     12 C8           2.5670     7.2880     0.6680 c3         1 18C      -0.079400
     13 C9           2.0460     8.7090     0.6060 c3         1 18C      -0.080400
     14 C10          3.1640     9.7310     0.6340 c3         1 18C      -0.079400
     15 C11          3.7870     9.9340    -0.7320 c3         1 18C      -0.082400
     16 C12          4.8910    10.9680    -0.6840 c3         1 18C      -0.078400
     17 C13          5.4770    11.2450    -2.0530 c3         1 18C      -0.079400
     18 C14          6.4090    10.1470    -2.5180 c3         1 18C      -0.077400
     19 C15          6.9930    10.4620    -3.8790 c3         1 18C      -0.080400
     20 C16          7.9260     9.3650    -4.3450 c3         1 18C      -0.078400
     21 C17          8.5080     9.6800    -5.7070 c3         1 18C      -0.081400
     22 C18          9.4390     8.5910    -6.1750 c3         1 18C      -0.092100
     23 O3          -1.0660     2.0110    -0.5570 oh         1 18C      -0.630800
     24 C20          1.9480    -1.5760    -1.6590 c3         1 18C      -0.158400
     25 C21          1.6540    -0.6790    -2.8440 c3         1 18C      -0.106400
     26 C22          2.6060     0.4970    -2.9400 c3         1 18C      -0.087400
     27 C23          2.0660     1.5890    -3.8410 c3         1 18C      -0.089400
     28 C24          1.1310     2.5290    -3.1090 c3         1 18C      -0.085400
     29 C25          0.5560     3.5660    -4.0500 c3         1 18C      -0.082400
     30 C26         -0.2550     4.6010    -3.2990 c3         1 18C      -0.076400
     31 C27         -0.8770     5.6010    -4.2510 c3         1 18C      -0.080400
     32 C28         -1.6640     6.6780    -3.5330 c3         1 18C      -0.078400
     33 C29         -0.7970     7.7120    -2.8460 c3         1 18C      -0.079400
     34 C30         -0.2060     8.7160    -3.8130 c3         1 18C      -0.080400
     35 C31          0.7770     9.6300    -3.1110 c3         1 18C      -0.080400
     36 C32          1.3730    10.6650    -4.0420 c3         1 18C      -0.079400
     37 C33          0.4220    11.8100    -4.3200 c3         1 18C      -0.079400
     38 C34          1.0530    12.8330    -5.2400 c3         1 18C      -0.078400
     39 C35          0.1310    14.0000    -5.5240 c3         1 18C      -0.079400
     40 C36         -0.9670    13.6530    -6.4960 c3         1 18C      -0.093100
     41 H361        -1.6050    14.5480    -6.6950 hc         1 18C       0.033367
     42 H362        -0.5380    13.3040    -7.4670 hc         1 18C       0.033367
     43 H363        -1.6180    12.8420    -6.0890 hc         1 18C       0.033367
     44 H351        -0.3200    14.3640    -4.5620 hc         1 18C       0.040700
     45 H352         0.7380    14.8460    -5.9440 hc         1 18C       0.040700
     46 H341         1.9960    13.2180    -4.7680 hc         1 18C       0.039700
     47 H342         1.3440    12.3410    -6.2060 hc         1 18C       0.039700
     48 H331        -0.5200    11.4150    -4.7850 hc         1 18C       0.040700
     49 H332         0.1330    12.3020    -3.3530 hc         1 18C       0.040700
     50 H321         2.3120    11.0720    -3.5770 hc         1 18C       0.040700
     51 H322         1.6670    10.1780    -5.0090 hc         1 18C       0.040700
     52 H311         0.2670    10.1420    -2.2520 hc         1 18C       0.037200
     53 H312         1.6070     9.0090    -2.6780 hc         1 18C       0.037200
     54 H301         0.3160     8.1800    -4.6500 hc         1 18C       0.044700
     55 H302        -1.0290     9.3230    -4.2740 hc         1 18C       0.044700
     56 H291        -1.4190     8.2610    -2.0890 hc         1 18C       0.035700
     57 H292         0.0310     7.2040    -2.2840 hc         1 18C       0.035700
     58 H281        -2.3340     6.1970    -2.7710 hc         1 18C       0.042700
     59 H282        -2.3280     7.1940    -4.2770 hc         1 18C       0.042700
     60 H271        -0.0720     6.0730    -4.8730 hc         1 18C       0.048700
     61 H272        -1.5630     5.0570    -4.9540 hc         1 18C       0.048700
     62 H261         0.4090     5.1390    -2.5700 hc         1 18C       0.029700
     63 H262        -1.0580     4.0910    -2.7030 hc         1 18C       0.029700
     64 H251        -0.0910     3.0610    -4.8160 hc         1 18C       0.053700
     65 H252         1.3890     4.0750    -4.6040 hc         1 18C       0.053700
     66 H241         0.2910     1.9540    -2.6320 hc         1 18C       0.028200
     67 H242         1.6890     3.0430    -2.2800 hc         1 18C       0.028200
     68 H231         1.5340     1.1310    -4.7170 hc         1 18C       0.064200
     69 H232         2.9270     2.1800    -4.2530 hc         1 18C       0.064200
     70 H221         3.5880     0.1330    -3.3490 hc         1 18C       0.041200
     71 H222         2.8240     0.9210    -1.9250 hc         1 18C       0.041200
     72 H211         0.5890    -0.3250    -2.8240 hc         1 18C       0.076700
     73 H212         1.7560    -1.2940    -3.7810 hc         1 18C       0.076700
     74 H201         3.0290    -1.4920    -1.3550 hc         1 18C       0.116700
     75 H202         1.7610    -2.6530    -1.9370 hc         1 18C       0.116700
     76 HN2          1.8670     0.4230     0.4260 hn         1 18C       0.481800
     77 H2          -1.0200    -0.2120     0.5900 hx         1 18C       0.126700
     78 H11          0.1060    -1.0550     2.5010 h1         1 18C       0.075200
     79 H12         -0.5460     0.5760     3.0490 h1         1 18C       0.075200
     80 HO1          1.6680     0.3220     3.5970 ho         1 18C       0.450000
     81 H3          -1.4310     2.0800     1.5060 h1         1 18C       0.088700
     82 HO3         -1.4810     2.8790    -0.6580 ho         1 18C       0.446000
     83 H4           1.0360     2.6650     2.0390 ha         1 18C       0.158000
     84 H5           0.3470     4.0920    -0.6550 ha         1 18C       0.132000
     85 H61          2.7960     4.7040    -0.0690 hc         1 18C       0.060200
     86 H62          2.3250     4.6990     1.6790 hc         1 18C       0.060200
     87 H71          0.6480     6.4890     1.2760 hc         1 18C       0.047200
     88 H72          0.9620     6.4330    -0.5040 hc         1 18C       0.047200
     89 H81          3.3300     7.1290    -0.1390 hc         1 18C       0.044700
     90 H82          3.0820     7.1180     1.6500 hc         1 18C       0.044700
     91 H91          1.3630     8.8860     1.4790 hc         1 18C       0.042700
     92 H92          1.4350     8.8450    -0.3270 hc         1 18C       0.042700
     93 H101         2.7530    10.7110     0.9970 hc         1 18C       0.044700
     94 H102         3.9530     9.4130     1.3650 hc         1 18C       0.044700
     95 H111         4.1960     8.9600    -1.1090 hc         1 18C       0.039200
     96 H112         2.9950    10.2640    -1.4590 hc         1 18C       0.039200
     97 H121         4.4800    11.9240    -0.2640 hc         1 18C       0.042200
     98 H122         5.7010    10.6220     0.0110 hc         1 18C       0.042200
     99 H131         6.0450    12.2140    -2.0160 hc         1 18C       0.042200
    100 H132         4.6490    11.3760    -2.7990 hc         1 18C       0.042200
    101 H141         7.2390    10.0180    -1.7740 hc         1 18C       0.036700
    102 H142         5.8530     9.1730    -2.5650 hc         1 18C       0.036700
    103 H151         7.5500    11.4350    -3.8320 hc         1 18C       0.042200
    104 H152         6.1630    10.5930    -4.6230 hc         1 18C       0.042200
    105 H161         7.3690     8.3920    -4.3910 hc         1 18C       0.036700
    106 H162         8.7560     9.2360    -3.6020 hc         1 18C       0.036700
    107 H171         9.0630    10.6540    -5.6590 hc         1 18C       0.041200
    108 H172         7.6770     9.8110    -6.4480 hc         1 18C       0.041200
    109 H181        10.2880     8.4630    -5.4620 hc         1 18C       0.032700
    110 H182         8.8980     7.6170    -6.2540 hc         1 18C       0.032700
    111 H183         9.8570     8.8440    -7.1790 hc         1 18C       0.032700
    112 H23          0.8570     0.7320    -0.8730 hn         1 18C       0.481800
@<TRIPOS>BOND
     1     1     2 2   
     2     2     3 1   
     3     2    24 1   
     4     3     4 1   
     5     3    76 1   
     6     3   112 1   
     7     4     5 1   
     8     4     7 1   
     9     4    77 1   
    10     5     6 1   
    11     5    78 1   
    12     5    79 1   
    13     6    80 1   
    14     7     8 1   
    15     7    23 1   
    16     7    81 1   
    17     8     9 2   
    18     8    83 1   
    19     9    10 1   
    20     9    84 1   
    21    10    11 1   
    22    10    85 1   
    23    10    86 1   
    24    11    12 1   
    25    11    87 1   
    26    11    88 1   
    27    12    13 1   
    28    12    89 1   
    29    12    90 1   
    30    13    14 1   
    31    13    91 1   
    32    13    92 1   
    33    14    15 1   
    34    14    93 1   
    35    14    94 1   
    36    15    16 1   
    37    15    95 1   
    38    15    96 1   
    39    16    17 1   
    40    16    97 1   
    41    16    98 1   
    42    17    18 1   
    43    17    99 1   
    44    17   100 1   
    45    18    19 1   
    46    18   101 1   
    47    18   102 1   
    48    19    20 1   
    49    19   103 1   
    50    19   104 1   
    51    20    21 1   
    52    20   105 1   
    53    20   106 1   
    54    21    22 1   
    55    21   107 1   
    56    21   108 1   
    57    22   109 1   
    58    22   110 1   
    59    22   111 1   
    60    23    82 1   
    61    24    25 1   
    62    24    74 1   
    63    24    75 1   
    64    25    26 1   
    65    25    72 1   
    66    25    73 1   
    67    26    27 1   
    68    26    70 1   
    69    26    71 1   
    70    27    28 1   
    71    27    68 1   
    72    27    69 1   
    73    28    29 1   
    74    28    66 1   
    75    28    67 1   
    76    29    30 1   
    77    29    64 1   
    78    29    65 1   
    79    30    31 1   
    80    30    62 1   
    81    30    63 1   
    82    31    32 1   
    83    31    60 1   
    84    31    61 1   
    85    32    33 1   
    86    32    58 1   
    87    32    59 1   
    88    33    34 1   
    89    33    56 1   
    90    33    57 1   
    91    34    35 1   
    92    34    54 1   
    93    34    55 1   
    94    35    36 1   
    95    35    52 1   
    96    35    53 1   
    97    36    37 1   
    98    36    50 1   
    99    36    51 1   
   100    37    38 1   
   101    37    48 1   
   102    37    49 1   
   103    38    39 1   
   104    38    46 1   
   105    38    47 1   
   106    39    40 1   
   107    39    44 1   
   108    39    45 1   
   109    40    41 1   
   110    40    42 1   
   111    40    43 1   
@<TRIPOS>SUBSTRUCTURE
     1 18C         1 TEMP              0 ****  ****    0 ROOT
