@<TRIPOS>MOLECULE
18C
  111   112     1     0     0
SMALL
bcc


@<TRIPOS>ATOM
      1 O19          0.0000     0.0000     0.0000 o          1 18C      -0.392000
      2 C19          1.2290     0.0000     0.0000 c2         1 18C       0.234000
      3 N2           2.0350     0.0000     1.1250 ns         1 18C      -0.015000
      4 C2           1.5100    -0.0000     2.4720 c3         1 18C      -0.087000
      5 C1           2.4870    -0.7600     3.3790 c3         1 18C       0.069000
      6 O1           2.6880    -2.0800     2.8950 oh         1 18C      -0.325000
      7 C3           1.2680     1.4650     2.9050 DU         1 18C       0.273000
      8 C4           0.6430     1.5960     4.2670 c2         1 18C      -0.309000
      9 C5          -0.4820     2.2530     4.5870 c2         1 18C      -0.283000
     10 C6          -1.1070     2.3850     5.9460 DU         1 18C       0.124000
     11 C7          -1.1890     3.8500     6.3750 c3         1 18C      -0.128000
     12 C8          -1.8250     4.0450     7.7550 c3         1 18C      -0.101000
     13 C9          -1.9910     5.4960     8.2150 c3         1 18C      -0.099000
     14 C10         -2.6100     5.6280     9.6090 c3         1 18C      -0.100000
     15 C11         -2.7740     7.0970    10.0070 c3         1 18C      -0.100000
     16 C12         -3.4220     7.2280    11.3860 c3         1 18C      -0.103000
     17 C13         -3.5460     8.6760    11.8670 c3         1 18C      -0.103000
     18 C14         -4.1270     8.8020    13.2770 c3         1 18C      -0.101000
     19 C15         -4.2390    10.2680    13.7010 c3         1 18C      -0.104000
     20 C16         -4.7840    10.3960    15.1240 c3         1 18C      -0.105000
     21 C17         -4.9280    11.8610    15.5360 c3         1 18C      -0.106000
     22 C18         -5.5010    11.9930    16.9380 c3         1 18C      -0.109000
     23 O3           2.5290     2.1430     2.9840 oh         1 18C      -0.335000
     24 C20          2.0220    -0.0040    -1.2930 c3         1 18C      -0.137000
     25 C21          1.1230    -0.0040    -2.5300 c3         1 18C      -0.090000
     26 C22          1.9290     0.0070    -3.8330 c3         1 18C      -0.103000
     27 C23          1.0510     0.0180    -5.0890 c3         1 18C      -0.102000
     28 C24          1.8550     0.0520    -6.3900 c3         1 18C      -0.101000
     29 C25          0.9330     0.0390    -7.6110 c3         1 18C      -0.103000
     30 C26          1.7340     0.1050    -8.9140 c3         1 18C      -0.101000
     31 C27          0.8110     0.0590   -10.1340 c3         1 18C      -0.103000
     32 C28          1.5550     0.1950   -11.4660 c3         1 18C      -0.103000
     33 C29          0.6260     0.2230   -12.6820 c3         1 18C      -0.100000
     34 C30          1.4160     0.4330   -13.9770 c3         1 18C      -0.099000
     35 C31          0.4940     0.4290   -15.1950 c3         1 18C      -0.102000
     36 C32          1.2190     0.6010   -16.5350 c3         1 18C      -0.101000
     37 C33          0.2970     0.6740   -17.7570 c3         1 18C      -0.101000
     38 C34          1.0490     0.9770   -19.0560 c3         1 18C      -0.103000
     39 C35          0.0810     1.1500   -20.2270 c3         1 18C      -0.105000
     40 C36          0.8170     1.5080   -21.5090 c3         1 18C      -0.109000
     41 H361         1.5310     0.7290   -21.7450 hc         1 18C       0.039333
     42 H362         0.1050     1.6040   -22.3190 hc         1 18C       0.039333
     43 H363         1.3400     2.4480   -21.3750 hc         1 18C       0.039333
     44 H351        -0.4620     0.2250   -20.3770 hc         1 18C       0.050000
     45 H352        -0.6220     1.9400   -19.9910 hc         1 18C       0.050000
     46 H341         1.7260     0.1590   -19.2730 hc         1 18C       0.051500
     47 H342         1.6210     1.8880   -18.9300 hc         1 18C       0.051500
     48 H331        -0.2150    -0.2740   -17.8640 hc         1 18C       0.050000
     49 H332        -0.4400     1.4520   -17.5920 hc         1 18C       0.050000
     50 H321         1.8030     1.5130   -16.4930 hc         1 18C       0.048500
     51 H322         1.8960    -0.2340   -16.6670 hc         1 18C       0.048500
     52 H311        -0.0450    -0.5100   -15.2150 hc         1 18C       0.049000
     53 H312        -0.2220     1.2350   -15.0860 hc         1 18C       0.049000
     54 H301         1.9330     1.3830   -13.9260 hc         1 18C       0.051000
     55 H302         2.1440    -0.3630   -14.0810 hc         1 18C       0.051000
     56 H291         0.0900    -0.7170   -12.7410 hc         1 18C       0.052000
     57 H292        -0.0870     1.0300   -12.5660 hc         1 18C       0.052000
     58 H281         2.2360    -0.6410   -11.5690 hc         1 18C       0.050000
     59 H282         2.1310     1.1120   -11.4480 hc         1 18C       0.050000
     60 H271         0.0910     0.8650   -10.0550 hc         1 18C       0.050500
     61 H272         0.2780    -0.8840   -10.1290 hc         1 18C       0.050500
     62 H261         2.4170    -0.7350    -8.9540 hc         1 18C       0.051000
     63 H262         2.3030     1.0270    -8.9350 hc         1 18C       0.051000
     64 H251         0.2660     0.8910    -7.5610 hc         1 18C       0.053000
     65 H252         0.3450    -0.8710    -7.6010 hc         1 18C       0.053000
     66 H241         2.4580     0.9520    -6.4110 hc         1 18C       0.051000
     67 H242         2.5060    -0.8130    -6.4280 hc         1 18C       0.051000
     68 H231         0.4090     0.8890    -5.0550 hc         1 18C       0.052500
     69 H232         0.4320    -0.8710    -5.0870 hc         1 18C       0.052500
     70 H221         2.5590    -0.8740    -3.8580 hc         1 18C       0.047000
     71 H222         2.5600     0.8870    -3.8440 hc         1 18C       0.047000
     72 H211         0.4890     0.8740    -2.5020 hc         1 18C       0.065000
     73 H212         0.4990    -0.8890    -2.5100 hc         1 18C       0.065000
     74 H201         2.6480    -0.8880    -1.3160 hc         1 18C       0.066000
     75 H202         2.6540     0.8750    -1.3190 hc         1 18C       0.066000
     76 HN2          3.0280     0.0000     1.0010 hn         1 18C       0.099000
     77 H2           0.5610    -0.5220     2.4740 h1         1 18C       0.105000
     78 H11          3.4360    -0.2380     3.3990 h1         1 18C       0.045000
     79 H12          2.0830    -0.8050     4.3830 h1         1 18C       0.045000
     80 HO1          3.1160    -2.5970     3.5580 ho         1 18C       0.195000
     81 H3           0.6400     1.9580     2.1720 ha         1 18C       0.047000
     82 HO3          2.4590     2.9860     2.5700 ho         1 18C       0.199000
     83 H4           0.8530     2.4270     3.6040 DU         1 18C       0.090000
     84 H5          -0.6910     1.4230     5.2510 DU         1 18C       0.103000
     85 H61         -2.1050     1.9660     5.9190 ha         1 18C       0.045500
     86 H62         -0.5100     1.8370     6.6650 ha         1 18C       0.045500
     87 H71         -1.7750     4.3940     5.6440 hc         1 18C       0.062000
     88 H72         -0.1870     4.2630     6.3940 hc         1 18C       0.062000
     89 H81         -1.2130     3.5280     8.4850 hc         1 18C       0.046500
     90 H82         -2.8040     3.5810     7.7440 hc         1 18C       0.046500
     91 H91         -2.6240     6.0150     7.5050 hc         1 18C       0.051000
     92 H92         -1.0170     5.9710     8.2230 hc         1 18C       0.051000
     93 H101        -3.5820     5.1490     9.6120 hc         1 18C       0.051500
     94 H102        -1.9700     5.1340    10.3290 hc         1 18C       0.051500
     95 H111        -1.7990     7.5700    10.0260 hc         1 18C       0.052000
     96 H112        -3.3960     7.5960     9.2730 hc         1 18C       0.052000
     97 H121        -2.8270     6.6740    12.1030 hc         1 18C       0.050000
     98 H122        -4.4130     6.7900    11.3460 hc         1 18C       0.050000
     99 H131        -2.5630     9.1300    11.8560 hc         1 18C       0.050000
    100 H132        -4.1860     9.2160    11.1800 hc         1 18C       0.050000
    101 H141        -3.4830     8.2790    13.9740 hc         1 18C       0.051500
    102 H142        -5.1120     8.3510    13.2970 hc         1 18C       0.051500
    103 H151        -3.2580    10.7260    13.6550 hc         1 18C       0.052000
    104 H152        -4.9030    10.7850    13.0190 hc         1 18C       0.052000
    105 H161        -5.7540     9.9160    15.1760 hc         1 18C       0.052000
    106 H162        -4.1060     9.9000    15.8090 hc         1 18C       0.052000
    107 H171        -5.5860    12.3620    14.8360 hc         1 18C       0.049500
    108 H172        -3.9540    12.3340    15.5060 hc         1 18C       0.049500
    109 H181        -6.4900    11.5520    16.9670 hc         1 18C       0.039667
    110 H182        -4.8560    11.4800    17.6410 hc         1 18C       0.039667
    111 H183        -5.5650    13.0410    17.2040 hc         1 18C       0.039667
@<TRIPOS>BOND
     1     1     2 1   
     2     2     3 1   
     3     2    24 1   
     4     3     4 1   
     5     3    76 1   
     6     4     5 1   
     7     4     7 1   
     8     4    77 1   
     9     5     6 1   
    10     5    78 1   
    11     5    79 1   
    12     6    80 1   
    13     7     8 1   
    14     7    23 1   
    15     7    81 1   
    16     7    83 1   
    17     8     9 1   
    18     8    83 1   
    19     9    10 1   
    20     9    84 1   
    21    10    11 1   
    22    10    84 1   
    23    10    85 1   
    24    10    86 1   
    25    11    12 1   
    26    11    87 1   
    27    11    88 1   
    28    12    13 1   
    29    12    89 1   
    30    12    90 1   
    31    13    14 1   
    32    13    91 1   
    33    13    92 1   
    34    14    15 1   
    35    14    93 1   
    36    14    94 1   
    37    15    16 1   
    38    15    95 1   
    39    15    96 1   
    40    16    17 1   
    41    16    97 1   
    42    16    98 1   
    43    17    18 1   
    44    17    99 1   
    45    17   100 1   
    46    18    19 1   
    47    18   101 1   
    48    18   102 1   
    49    19    20 1   
    50    19   103 1   
    51    19   104 1   
    52    20    21 1   
    53    20   105 1   
    54    20   106 1   
    55    21    22 1   
    56    21   107 1   
    57    21   108 1   
    58    22   109 1   
    59    22   110 1   
    60    22   111 1   
    61    23    82 1   
    62    24    25 1   
    63    24    74 1   
    64    24    75 1   
    65    25    26 1   
    66    25    72 1   
    67    25    73 1   
    68    26    27 1   
    69    26    70 1   
    70    26    71 1   
    71    27    28 1   
    72    27    68 1   
    73    27    69 1   
    74    28    29 1   
    75    28    66 1   
    76    28    67 1   
    77    29    30 1   
    78    29    64 1   
    79    29    65 1   
    80    30    31 1   
    81    30    62 1   
    82    30    63 1   
    83    31    32 1   
    84    31    60 1   
    85    31    61 1   
    86    32    33 1   
    87    32    58 1   
    88    32    59 1   
    89    33    34 1   
    90    33    56 1   
    91    33    57 1   
    92    34    35 1   
    93    34    54 1   
    94    34    55 1   
    95    35    36 1   
    96    35    52 1   
    97    35    53 1   
    98    36    37 1   
    99    36    50 1   
   100    36    51 1   
   101    37    38 1   
   102    37    48 1   
   103    37    49 1   
   104    38    39 1   
   105    38    46 1   
   106    38    47 1   
   107    39    40 1   
   108    39    44 1   
   109    39    45 1   
   110    40    41 1   
   111    40    42 1   
   112    40    43 1   
@<TRIPOS>SUBSTRUCTURE
     1 18C         1 TEMP              0 ****  ****    0 ROOT
