@<TRIPOS>MOLECULE
molecule
   42    42     1     0     0
SMALL
bcc


@<TRIPOS>ATOM
      1 C1           1.5080     0.0000     0.0000 c          1 18D       0.857600
      2 C2           0.0000     0.0000     0.0000 c3         1 18D       0.262600
      3 C3          -0.5100     0.0000     1.4430 c3         1 18D      -0.148400
      4 C4          -0.0450     1.2820     2.1410 c3         1 18D       0.111100
      5 C5          -0.5450     2.4930     1.3470 c3         1 18D       0.101700
      6 C6          -0.0340     2.3970    -0.0920 c3         1 18D       0.145100
      7 C7          -0.5790     3.5710    -0.9070 c3         1 18D       0.161100
      8 C8          -0.1700     3.4080    -2.3730 c3         1 18D       0.133100
      9 C9          -0.7160     4.5820    -3.1890 c3         1 18D       0.097400
     10 C11         -0.1980     5.5500     3.6250 c3         1 18D      -0.163400
     11 N5          -0.0450     3.7240     1.9640 ns         1 18D      -0.570900
     12 O1           2.1790     0.9520     0.6670 o          1 18D      -0.829800
     13 O3           2.1120    -0.8600    -0.5960 o          1 18D      -0.829800
     14 O2          -0.4770    -1.1660    -0.6740 oh         1 18D      -0.599800
     15 O4          -0.5780     1.3260     3.4650 oh         1 18D      -0.608800
     16 O6          -0.4760     1.1670    -0.6720 os         1 18D      -0.400600
     17 O7          -2.0040     3.5960    -0.8110 oh         1 18D      -0.587800
     18 O8           1.2550     3.3810    -2.4710 oh         1 18D      -0.594800
     19 O9          -0.4350     4.3710    -4.5740 oh         1 18D      -0.611800
     20 C22         -1.1360     5.9720     4.7580 c3         1 18D      -0.074100
     21 O10         -1.7310     3.7690     3.4040 o          1 18D      -0.598100
     22 H2          -0.2110    -1.9360    -0.1980 ho         1 18D       0.414000
     23 H31C        -1.5930    -0.0390     1.4440 hc         1 18D       0.043700
     24 H32C        -0.1110    -0.8600     1.9670 hc         1 18D       0.043700
     25 H4           1.0370     1.2990     2.1800 h1         1 18D       0.116700
     26 HA          -0.0400     0.8040     4.0380 ho         1 18D       0.384000
     27 H5          -1.6290     2.4990     1.3440 h1         1 18D       0.091700
     28 H6           1.0490     2.4240    -0.0910 h1         1 18D       0.133700
     29 H7          -0.1740     4.4980    -0.5210 h1         1 18D       0.034700
     30 H8          -0.5760     2.4800    -2.7600 h1         1 18D       0.085700
     31 HB          -2.3010     4.4910    -0.7760 ho         1 18D       0.383000
     32 H91C        -1.7880     4.6540    -3.0450 h1         1 18D       0.020700
     33 H92C        -0.2450     5.5000    -2.8600 h1         1 18D       0.020700
     34 HC           1.5060     3.0250    -3.3070 ho         1 18D       0.416000
     35 H9          -0.8600     5.0380    -5.0860 ho         1 18D       0.392000
     36 HD           0.8030     4.1400     1.6330 hn         1 18D       0.310500
     37 H111         0.7940     5.3760     4.0230 hc         1 18D       0.048700
     38 H112        -0.1560     6.3350     2.8800 hc         1 18D       0.048700
     39 H221        -1.1600     5.1970     5.5150 hc         1 18D       0.036033
     40 H222        -2.1340     6.1220     4.3640 hc         1 18D       0.036033
     41 H223        -0.7780     6.8950     5.1980 hc         1 18D       0.036033
     42 C10         -0.7140     4.2840     2.9900 c          1 18D       0.651100
@<TRIPOS>BOND
     1    13     1 1   
     2     1    12 1   
     3     1     2 1   
     4     2    14 1   
     5     2     3 1   
     6     2    16 1   
     7     3     4 1   
     8     4    15 1   
     9     4     5 1   
    10    16     6 1   
    11     6     7 1   
    12     6     5 1   
    13     7     8 1   
    14     7    17 1   
    15     8     9 1   
    16     8    18 1   
    17     9    19 1   
    18     5    11 1   
    19    11    42 1   
    20    42    21 2   
    21    42    10 1   
    22    10    20 1   
    23    14    22 1   
    24     3    23 1   
    25     3    24 1   
    26     4    25 1   
    27    15    26 1   
    28     5    27 1   
    29     6    28 1   
    30     7    29 1   
    31     8    30 1   
    32    17    31 1   
    33     9    32 1   
    34     9    33 1   
    35    18    34 1   
    36    19    35 1   
    37    11    36 1   
    38    10    37 1   
    39    10    38 1   
    40    20    39 1   
    41    20    40 1   
    42    20    41 1   
@<TRIPOS>SUBSTRUCTURE
     1 18D         1 TEMP              0 ****  ****    0 ROOT
