@<TRIPOS>MOLECULE
18E
   31    34     1     0     0
SMALL
bcc


@<TRIPOS>ATOM
      1 C1          0.0600   -0.0830   -0.0520 ca        1 18E      0.137100
      2 O1         -0.5380   -0.1000   -1.2900 oh        1 18E     -0.495100
      3 C2          1.4830   -0.0610   -0.0630 ca        1 18E     -0.144000
      4 C3          2.1590   -0.0430    1.1310 ca        1 18E     -0.087000
      5 C4          1.4620   -0.0460    2.3660 ca        1 18E     -0.072000
      6 C5          0.0400   -0.0680    2.3730 ca        1 18E      0.030000
      7 C6         -0.6500   -0.0860    1.1340 ca        1 18E     -0.220000
      8 C7          2.1100   -0.0280    3.6310 ca        1 18E      0.008800
      9 C8          1.3660   -0.0320    4.8560 cp        1 18E     -0.083000
     10 C9         -0.0390   -0.0540    4.8180 ca        1 18E     -0.053000
     11 C10        -0.6800   -0.0710    3.6040 ca        1 18E     -0.162000
     12 N11         3.4820   -0.0050    3.9150 na        1 18E     -0.174300
     13 C12         3.6420    0.0060    5.3000 ca        1 18E      0.013800
     14 C13         2.3330   -0.0100    5.9300 cp        1 18E     -0.175300
     15 C14         4.8080    0.0290    6.0840 ca        1 18E     -0.215600
     16 C15         6.1550    0.0470    5.4840 c3        1 18E     -0.044800
     17 C16         4.6070    0.0350    7.4750 ca        1 18E      0.423200
     18 N17         3.4090    0.0210    8.0950 nb        1 18E     -0.676000
     19 C18         2.2930   -0.0020    7.3350 ca        1 18E      0.537300
     20 CL18        0.7770   -0.0200    8.1300 cl        1 18E     -0.150000
     21 HO1        -1.4980   -0.1140   -1.1600 ho        1 18E      0.422000
     22 H2          2.0060   -0.0590   -1.0300 ha        1 18E      0.154000
     23 H3          3.2600   -0.0260    1.1310 ha        1 18E      0.127000
     24 H6         -1.7490   -0.1030    1.1350 ha        1 18E      0.139000
     25 H9         -0.6070   -0.0560    5.7610 ha        1 18E      0.148000
     26 H10        -1.7790   -0.0880    3.5590 ha        1 18E      0.136000
     27 H15         6.9460    0.0620    6.2740 hc        1 18E      0.046367
     28 H15A        6.3130   -0.8610    4.8480 hc        1 18E      0.046367
     29 H15B        6.2860    0.9520    4.8400 hc        1 18E      0.046367
     30 H16         5.4770    0.0530    8.1590 h4        1 18E      0.028100
     31 HN11        4.2120    0.0020    3.2540 hn        1 18E      0.307700
@<TRIPOS>BOND
     1    1    2 1   
     2    1    3 ar  
     3    1    7 ar  
     4    2   21 1   
     5    3    4 ar  
     6    3   22 1   
     7    4    5 ar  
     8    4   23 1   
     9    5    6 ar  
    10    5    8 ar  
    11    6    7 ar  
    12    6   11 ar  
    13    7   24 1   
    14    8    9 ar  
    15    8   12 1   
    16    9   10 ar  
    17    9   14 1   
    18   10   11 ar  
    19   10   25 1   
    20   11   26 1   
    21   12   13 1   
    22   12   31 1   
    23   13   14 ar  
    24   13   15 ar  
    25   14   19 ar  
    26   15   16 1   
    27   15   17 ar  
    28   16   27 1   
    29   16   28 1   
    30   16   29 1   
    31   17   18 ar  
    32   17   30 1   
    33   18   19 ar  
    34   19   20 1   
@<TRIPOS>SUBSTRUCTURE
     1 18E         1 TEMP              0 ****  ****    0 ROOT
