@<TRIPOS>MOLECULE
molecule
   31    34     1     0     0
SMALL
bcc


@<TRIPOS>ATOM
      1 C1           0.0000     0.0000     0.0000 ca         1 18E       0.113100
      2 O1          -0.6720     0.0000    -1.1810 oh         1 18E      -0.521100
      3 C2           1.3980     0.0000     0.0000 ca         1 18E      -0.150000
      4 C3           2.0950     0.0000     1.1690 ca         1 18E      -0.106000
      5 C4           1.4090    -0.0010     2.3930 ca         1 18E      -0.047000
      6 C5          -0.0060     0.0000     2.4020 ca         1 18E       0.006000
      7 C6          -0.7020     0.0050     1.1840 ca         1 18E      -0.143000
      8 C7           2.1120    -0.0020     3.6200 ca         1 18E       0.000800
      9 C8           1.3910    -0.0030     4.8140 cp         1 18E      -0.085000
     10 C9          -0.0120    -0.0030     4.8000 ca         1 18E      -0.060000
     11 C10         -0.6990    -0.0010     3.6300 ca         1 18E      -0.151000
     12 N11          3.4600    -0.0030     3.9150 na         1 18E      -0.161300
     13 C12          3.6490    -0.0040     5.2770 ca         1 18E       0.023800
     14 C13          2.3870    -0.0040     5.8990 cp         1 18E      -0.195300
     15 C14          4.7820    -0.0040     6.0920 ca         1 18E      -0.230600
     16 C15          6.1600    -0.0030     5.4870 c3         1 18E      -0.042800
     17 C16          4.6190    -0.0040     7.4590 ca         1 18E       0.452200
     18 N17          3.4160    -0.0040     8.0120 nb         1 18E      -0.704000
     19 C18          2.3130    -0.0040     7.2890 ca         1 18E       0.569300
     20 Cl18         0.7650    -0.0040     8.0730 cl         1 18E      -0.156000
     21 HO1         -0.8310     0.8890    -1.4520 ho         1 18E       0.420000
     22 H2           1.9330    -0.0010    -0.9420 ha         1 18E       0.141000
     23 H3           3.1780    -0.0000     1.1540 ha         1 18E       0.125000
     24 H6          -1.7780     0.1300     1.1750 ha         1 18E       0.147000
     25 H9          -0.5560    -0.0040     5.7370 ha         1 18E       0.143000
     26 H10         -1.7820    -0.0080     3.6390 ha         1 18E       0.140000
     27 H15          6.3310     0.9390     4.9790 hc         1 18E       0.045033
     28 H15A         6.2430    -0.8160     4.7760 hc         1 18E       0.045033
     29 H15B         6.8990    -0.1300     6.2690 hc         1 18E       0.045033
     30 H16          5.4940    -0.0040     8.0970 h4         1 18E       0.032100
     31 HN11         4.1950    -0.0020     3.2360 hn         1 18E       0.303700
@<TRIPOS>BOND
     1     2     1 1
     2     7     1 ar
     3     1     3 ar
     4     2    21 1
     5     3     4 ar
     6     3    22 1
     7     5     4 ar
     8     4    23 1
     9     6     5 ar
    10     5     8 ar
    11     7     6 ar
    12    11     6 ar
    13     7    24 1
    14     9     8 ar
    15     8    12 1
    16    10     9 ar
    17     9    14 1
    18    11    10 ar
    19    10    25 1
    20    11    26 1
    21    12    13 1
    22    14    13 ar
    23    13    15 ar
    24    14    19 ar
    25    15    17 ar
    26    15    16 1
    27    16    27 1
    28    16    28 1
    29    16    29 1
    30    18    17 ar
    31    17    30 1
    32    19    18 ar
    33    20    19 1
    34    12    31 1
@<TRIPOS>SUBSTRUCTURE
     1 18E         1 TEMP              0 ****  ****    0 ROOT
