@<TRIPOS>MOLECULE
18E
   31    34     1     0     0
SMALL
bcc


@<TRIPOS>ATOM
      1 C1           0.1250    -0.0790    -0.0480 ca         1 18E       0.137100
      2 O1          -0.4130    -0.0980    -1.3130 oh         1 18E      -0.495100
      3 C2           1.5480    -0.0530     0.0100 ca         1 18E      -0.144000
      4 C3           2.1660    -0.0330     1.2350 ca         1 18E      -0.087000
      5 C4           1.4090    -0.0380     2.4350 ca         1 18E      -0.072000
      6 C5          -0.0110    -0.0630     2.3730 ca         1 18E       0.030000
      7 C6          -0.6410    -0.0840     1.1030 ca         1 18E      -0.220000
      8 C7           1.9960    -0.0180     3.7300 ca         1 18E       0.008800
      9 C8           1.1940    -0.0230     4.9170 cp         1 18E      -0.083000
     10 C9          -0.2080    -0.0490     4.8120 ca         1 18E      -0.053000
     11 C10         -0.7890    -0.0680     3.5680 ca         1 18E      -0.162000
     12 N11          3.3520     0.0090     4.0790 na         1 18E      -0.174300
     13 C12          3.4450     0.0210     5.4710 ca         1 18E       0.013800
     14 C13          2.1080     0.0010     6.0370 cp         1 18E      -0.175300
     15 C14          4.5720     0.0470     6.3090 ca         1 18E      -0.215600
     16 C15          5.9470     0.0680     5.7760 c3         1 18E      -0.044800
     17 C16          4.3050     0.0530     7.6900 ca         1 18E       0.423200
     18 N17          3.0780     0.0350     8.2510 nb         1 18E      -0.676000
     19 C18          2.0000     0.0100     7.4380 ca         1 18E       0.537300
     20 Cl18         0.4480    -0.0130     8.1600 cl         1 18E      -0.150000
     21 HO1         -1.3770    -0.1140    -1.2290 ho         1 18E       0.422000
     22 H2           2.1160    -0.0500    -0.9310 ha         1 18E       0.154000
     23 H3           3.2640    -0.0130     1.2880 ha         1 18E       0.127000
     24 H6          -1.7390    -0.1040     1.0510 ha         1 18E       0.139000
     25 H9          -0.8210    -0.0530     5.7260 ha         1 18E       0.148000
     26 H10         -1.8850    -0.0890     3.4700 ha         1 18E       0.136000
     27 H15          6.6990     0.0840     6.6030 hc         1 18E       0.046367
     28 H15A         6.1060     0.9750     5.1390 hc         1 18E       0.046367
     29 H15B         6.1360    -0.8380     5.1470 hc         1 18E       0.046367
     30 H16          5.1400     0.0730     8.4150 h4         1 18E       0.028100
     31 HN11         4.1130     0.0180     3.4540 hn         1 18E       0.307700
@<TRIPOS>BOND
     1     1     2 1   
     2     1     3 ar  
     3     1     7 ar  
     4     2    21 1   
     5     3     4 ar  
     6     3    22 1   
     7     4     5 ar  
     8     4    23 1   
     9     5     6 ar  
    10     5     8 ar  
    11     6     7 ar  
    12     6    11 ar  
    13     7    24 1   
    14     8     9 ar  
    15     8    12 1   
    16     9    10 ar  
    17     9    14 1   
    18    10    11 ar  
    19    10    25 1   
    20    11    26 1   
    21    12    13 1   
    22    12    31 1   
    23    13    14 ar  
    24    13    15 ar  
    25    14    19 ar  
    26    15    16 1   
    27    15    17 ar  
    28    16    27 1   
    29    16    28 1   
    30    16    29 1   
    31    17    18 ar  
    32    17    30 1   
    33    18    19 ar  
    34    19    20 1   
@<TRIPOS>SUBSTRUCTURE
     1 18E         1 TEMP              0 ****  ****    0 ROOT
