@<TRIPOS>MOLECULE
molecule
   38    41     1     0     0
SMALL
bcc


@<TRIPOS>ATOM
      1 CAR          0.0000     0.0000     0.0000 ca         1 18F      -0.107000
      2 CAS          1.3820     0.0000     0.0000 ca         1 18F      -0.128000
      3 CAT          2.0740     0.0000     1.1970 ca         1 18F      -0.117000
      4 CAU          1.3830    -0.0010     2.3940 ca         1 18F      -0.128000
      5 CAV         -0.0000    -0.0020     2.3940 ca         1 18F      -0.107000
      6 CAQ         -0.6910     0.0050     1.1960 ca         1 18F      -0.121300
      7 CAP         -2.1990     0.0050     1.1970 c3         1 18F       0.087600
      8 NAE         -2.6870     1.3810     1.3130 na         1 18F      -0.143300
      9 CAD         -2.9080     2.0750     2.4860 ca         1 18F      -0.085200
     10 CAI         -2.7670     1.7640     3.8310 ca         1 18F      -0.129000
     11 CAH         -3.0810     2.7070     4.7870 ca         1 18F      -0.115000
     12 CAG         -3.5370     3.9630     4.4140 ca         1 18F      -0.148000
     13 CAF         -3.6840     4.2870     3.0940 ca         1 18F      -0.069000
     14 CAC         -3.3710     3.3480     2.1070 ca         1 18F       0.092400
     15 NAB         -3.4100     3.3730     0.7530 nc         1 18F      -0.593100
     16 CAA         -3.0050     2.2200     0.2790 cd         1 18F       0.475400
     17 CAJ         -2.9120     1.8750    -1.1560 ca         1 18F      -0.097900
     18 CAK         -3.2320     0.5880    -1.5890 ca         1 18F      -0.105500
     19 CAL         -3.1430     0.2730    -2.9300 ca         1 18F      -0.131500
     20 CAM         -2.7370     1.2290    -3.8430 ca         1 18F      -0.118000
     21 CAN         -2.4190     2.5070    -3.4200 ca         1 18F      -0.131500
     22 CAO         -2.5090     2.8370    -2.0830 ca         1 18F      -0.105500
     23 H1          -0.5410     0.0030    -0.9380 ha         1 18F       0.133500
     24 H2           1.9240    -0.0010    -0.9380 ha         1 18F       0.133000
     25 H3           3.1570     0.0000     1.1970 ha         1 18F       0.131000
     26 H4           1.9240    -0.0040     3.3320 ha         1 18F       0.133000
     27 H5          -0.5420    -0.0010     3.3320 ha         1 18F       0.133500
     28 H6          -2.5590    -0.5790     2.0350 h1         1 18F       0.071700
     29 H7          -2.5600    -0.4300     0.2720 h1         1 18F       0.071700
     30 H8          -2.4110     0.7850     4.1280 ha         1 18F       0.123000
     31 H9          -2.9700     2.4650     5.8380 ha         1 18F       0.131000
     32 H10         -3.7800     4.6930     5.1760 ha         1 18F       0.132000
     33 H11         -4.0410     5.2710     2.8140 ha         1 18F       0.141000
     34 H12         -3.5500    -0.1620    -0.8750 ha         1 18F       0.144500
     35 H13         -3.3910    -0.7260    -3.2680 ha         1 18F       0.134500
     36 H14         -2.6670     0.9750    -4.8940 ha         1 18F       0.132000
     37 H15         -2.1040     3.2520    -4.1410 ha         1 18F       0.134500
     38 H16         -2.2600     3.8380    -1.7520 ha         1 18F       0.144500
@<TRIPOS>BOND
     1    13    12 ar
     2    13    14 ar
     3    12    11 ar
     4    15    14 1
     5    15    16 2
     6    14     9 ar
     7    18    19 ar
     8    18    17 ar
     9    19    20 ar
    10    11    10 ar
    11    16    17 1
    12    16     8 1
    13    17    22 ar
    14     9    10 ar
    15     9     8 1
    16    20    21 ar
    17     8     7 1
    18    22    21 ar
    19     7     6 1
    20     5     4 ar
    21     5     6 ar
    22     4     3 ar
    23     6     1 ar
    24     3     2 ar
    25     1     2 ar
    26     1    23 1
    27     2    24 1
    28     3    25 1
    29     4    26 1
    30     5    27 1
    31     7    28 1
    32     7    29 1
    33    10    30 1
    34    11    31 1
    35    12    32 1
    36    13    33 1
    37    18    34 1
    38    19    35 1
    39    20    36 1
    40    21    37 1
    41    22    38 1
@<TRIPOS>SUBSTRUCTURE
     1 18F         1 TEMP              0 ****  ****    0 ROOT
