@<TRIPOS>MOLECULE
18F
   38    41     1     0     0
SMALL
bcc


@<TRIPOS>ATOM
      1 CAR         0.0950   -0.5040    0.0560 ca        1 18F     -0.112500
      2 CAS         1.4890   -0.4990    0.0430 ca        1 18F     -0.130500
      3 CAT         2.1970    0.0830    1.0940 ca        1 18F     -0.121000
      4 CAU         1.5080    0.6600    2.1610 ca        1 18F     -0.130500
      5 CAV         0.1140    0.6520    2.1790 ca        1 18F     -0.112500
      6 CAQ        -0.5990    0.0690    1.1260 ca        1 18F     -0.121300
      7 CAP        -2.1010    0.0120    1.1530 c3        1 18F      0.091600
      8 NAE        -2.7800    1.2640    1.3190 na        1 18F     -0.159300
      9 CAD        -2.9850    1.9250    2.5420 ca        1 18F     -0.073200
     10 CAI        -2.8850    1.5070    3.8750 ca        1 18F     -0.139000
     11 CAH        -3.2190    2.4250    4.8610 ca        1 18F     -0.114000
     12 CAG        -3.6450    3.7270    4.5470 ca        1 18F     -0.154000
     13 CAF        -3.7560    4.1630    3.2340 ca        1 18F     -0.068000
     14 CAC        -3.4250    3.2680    2.2080 ca        1 18F      0.066400
     15 NAB        -3.4480    3.4190    0.8070 nc        1 18F     -0.553100
     16 CAA        -3.0460    2.2330    0.3050 cd        1 18F      0.472400
     17 CAJ        -2.9400    1.9280   -1.1270 ca        1 18F     -0.111900
     18 CAK        -3.6580    0.8620   -1.6820 ca        1 18F     -0.099500
     19 CAL        -3.5630    0.6010   -3.0470 ca        1 18F     -0.136000
     20 CAM        -2.7590    1.4000   -3.8610 ca        1 18F     -0.117000
     21 CAN        -2.0520    2.4680   -3.3080 ca        1 18F     -0.136000
     22 CAO        -2.1410    2.7380   -1.9430 ca        1 18F     -0.099500
     23 H1         -0.4570   -0.9590   -0.7800 ha        1 18F      0.138000
     24 H2          2.0300   -0.9530   -0.8000 ha        1 18F      0.134000
     25 H3          3.2970    0.0890    1.0810 ha        1 18F      0.133000
     26 H4          2.0630    1.1240    2.9890 ha        1 18F      0.134000
     27 H5         -0.4300    1.1110    3.0200 ha        1 18F      0.138000
     28 H6         -2.4110   -0.6560    2.0110 h1        1 18F      0.069200
     29 H7         -2.4740   -0.4490    0.1910 h1        1 18F      0.069200
     30 H8         -2.5590    0.4900    4.1290 ha        1 18F      0.135000
     31 H9         -3.1490    2.1270    5.9180 ha        1 18F      0.131000
     32 H10        -3.8970    4.4150    5.3670 ha        1 18F      0.133000
     33 H11        -4.0950    5.1800    2.9950 ha        1 18F      0.148000
     34 H12        -4.3080    0.2430   -1.0450 ha        1 18F      0.145000
     35 H13        -4.1310   -0.2340   -3.4850 ha        1 18F      0.136000
     36 H14        -2.6880    1.1910   -4.9380 ha        1 18F      0.134000
     37 H15        -1.4240    3.1030   -3.9500 ha        1 18F      0.136000
     38 H16        -1.5930    3.5870   -1.5070 ha        1 18F      0.145000
@<TRIPOS>BOND
     1    1    2 ar  
     2    1    6 ar  
     3    1   23 1   
     4    2    3 ar  
     5    2   24 1   
     6    3    4 ar  
     7    3   25 1   
     8    4    5 ar  
     9    4   26 1   
    10    5    6 ar  
    11    5   27 1   
    12    6    7 1   
    13    7    8 1   
    14    7   28 1   
    15    7   29 1   
    16    8    9 1   
    17    8   16 1   
    18    9   10 ar  
    19    9   14 ar  
    20   10   11 ar  
    21   10   30 1   
    22   11   12 ar  
    23   11   31 1   
    24   12   13 ar  
    25   12   32 1   
    26   13   14 ar  
    27   13   33 1   
    28   14   15 1   
    29   15   16 2   
    30   16   17 1   
    31   17   18 ar  
    32   17   22 ar  
    33   18   19 ar  
    34   18   34 1   
    35   19   20 ar  
    36   19   35 1   
    37   20   21 ar  
    38   20   36 1   
    39   21   22 ar  
    40   21   37 1   
    41   22   38 1   
@<TRIPOS>SUBSTRUCTURE
     1 18F         1 TEMP              0 ****  ****    0 ROOT
