@<TRIPOS>MOLECULE
18F
   38    41     1     0     0
SMALL
bcc


@<TRIPOS>ATOM
      1 CAR         -0.0190     0.4260     0.0490 ca         1 18F      -0.122000
      2 CAS          1.3640     0.5480    -0.0560 ca         1 18F      -0.126500
      3 CAT          2.1770     0.2520     1.0380 ca         1 18F      -0.126000
      4 CAU          1.6010    -0.1670     2.2360 ca         1 18F      -0.126500
      5 CAV          0.2140    -0.2950     2.3430 ca         1 18F      -0.122000
      6 CAQ         -0.6030     0.0020     1.2500 ca         1 18F      -0.113300
      7 CAP         -2.1010    -0.1430     1.2750 c3         1 18F       0.090600
      8 NAE         -2.7340    -0.1290     2.5580 na         1 18F      -0.164300
      9 CAD         -2.9970     1.0090     3.3340 ca         1 18F      -0.068200
     10 CAI         -2.7280     2.3700     3.1450 ca         1 18F      -0.130000
     11 CAH         -3.1460     3.2470     4.1350 ca         1 18F      -0.115000
     12 CAG         -3.8150     2.7990     5.2880 ca         1 18F      -0.154000
     13 CAF         -4.0940     1.4570     5.4960 ca         1 18F      -0.070000
     14 CAC         -3.6900     0.5350     4.5190 ca         1 18F       0.064400
     15 NAB         -3.8370    -0.8620     4.4490 nc         1 18F      -0.558100
     16 CAA         -3.2610    -1.2350     3.2840 cd         1 18F       0.468400
     17 CAJ         -3.2040    -2.6170     2.7940 ca         1 18F      -0.117900
     18 CAK         -4.3550    -3.4140     2.8690 ca         1 18F      -0.100500
     19 CAL         -4.3120    -4.7360     2.4290 ca         1 18F      -0.136000
     20 CAM         -3.1280    -5.2690     1.9180 ca         1 18F      -0.115000
     21 CAN         -1.9810    -4.4780     1.8510 ca         1 18F      -0.136000
     22 CAO         -2.0140    -3.1550     2.2890 ca         1 18F      -0.100500
     23 H1          -0.6570     0.6630    -0.8160 ha         1 18F       0.138500
     24 H2           1.8150     0.8800    -1.0030 ha         1 18F       0.135000
     25 H3           3.2690     0.3510     0.9560 ha         1 18F       0.134000
     26 H4           2.2370    -0.3980     3.1030 ha         1 18F       0.135000
     27 H5          -0.2210    -0.6220     3.3000 ha         1 18F       0.138500
     28 H6          -2.3630    -1.1190     0.7670 h1         1 18F       0.072200
     29 H7          -2.5460     0.7010     0.6670 h1         1 18F       0.072200
     30 H8          -2.2020     2.7260     2.2500 ha         1 18F       0.138000
     31 H9          -2.9490     4.3240     4.0190 ha         1 18F       0.131000
     32 H10         -4.1240     3.5380     6.0430 ha         1 18F       0.132000
     33 H11         -4.6180     1.1130     6.3990 ha         1 18F       0.147000
     34 H12         -5.2860    -2.9970     3.2830 ha         1 18F       0.148500
     35 H13         -5.2160    -5.3600     2.4880 ha         1 18F       0.136500
     36 H14         -3.0980    -6.3120     1.5720 ha         1 18F       0.134000
     37 H15         -1.0440    -4.8990     1.4570 ha         1 18F       0.136500
     38 H16         -1.1020    -2.5380     2.2480 ha         1 18F       0.148500
@<TRIPOS>BOND
     1     1     2 ar  
     2     1     6 ar  
     3     1    23 1   
     4     2     3 ar  
     5     2    24 1   
     6     3     4 ar  
     7     3    25 1   
     8     4     5 ar  
     9     4    26 1   
    10     5     6 ar  
    11     5    27 1   
    12     6     7 1   
    13     7     8 1   
    14     7    28 1   
    15     7    29 1   
    16     8     9 1   
    17     8    16 1   
    18     9    10 ar  
    19     9    14 ar  
    20    10    11 ar  
    21    10    30 1   
    22    11    12 ar  
    23    11    31 1   
    24    12    13 ar  
    25    12    32 1   
    26    13    14 ar  
    27    13    33 1   
    28    14    15 1   
    29    15    16 2   
    30    16    17 1   
    31    17    18 ar  
    32    17    22 ar  
    33    18    19 ar  
    34    18    34 1   
    35    19    20 ar  
    36    19    35 1   
    37    20    21 ar  
    38    20    36 1   
    39    21    22 ar  
    40    21    37 1   
    41    22    38 1   
@<TRIPOS>SUBSTRUCTURE
     1 18F         1 TEMP              0 ****  ****    0 ROOT
