@<TRIPOS>MOLECULE
molecule
   53    55     1     0     0
SMALL
bcc


@<TRIPOS>ATOM
      1 N2           0.0000     0.0000     0.0000 nv         1 18G      -1.049500
      2 C14          1.3830     0.0000     0.0000 ca         1 18G       0.973900
      3 N1           2.0250     0.0000     1.1590 nb         1 18G      -0.789000
      4 C13          3.3520     0.0000     1.2000 ca         1 18G       0.715200
      5 N            4.0190    -0.0000     2.4110 nv         1 18G      -1.070500
      6 N3           2.0260    -0.0050    -1.1590 nb         1 18G      -0.761000
      7 C15          3.3470    -0.0040    -1.2070 ca         1 18G       0.548600
      8 C16          4.0630    -0.0090    -2.5330 c3         1 18G      -0.171400
      9 C12          4.0700     0.0010    -0.0130 ca         1 18G      -0.260600
     10 C11          5.5020     0.0010    -0.0200 cg         1 18G      -0.093000
     11 C10          6.6760    -0.0200    -0.0280 c1         1 18G      -0.113100
     12 C8           8.1610    -0.2220    -0.0810 c3         1 18G       0.104700
     13 C9           8.7610    -0.7600    -1.2370 c3         1 18G      -0.145100
     14 C7           8.7500     1.1620     0.0950 ca         1 18G      -0.127300
     15 C1           9.8390     1.7250    -0.6050 ca         1 18G       0.092100
     16 O           10.2320     0.8610    -1.6140 os         1 18G      -0.282900
     17 C           11.4170     1.5560    -2.0590 c3         1 18G       0.046700
     18 C6           8.0610     2.1130     1.2100 ca         1 18G      -0.041000
     19 C4           9.5090     2.6280     1.8930 ca         1 18G       0.092100
     20 O1           9.5100     3.2470     3.1560 os         1 18G      -0.344900
     21 C5           9.0400     4.5410     2.9980 c3         1 18G       0.058700
     22 C3          10.1980     3.4950     0.8800 cp         1 18G      -0.094000
     23 C2          10.3580     2.9970    -0.4230 ca         1 18G      -0.158000
     24 C17         10.7510     4.9370     1.2070 cp         1 18G      -0.055000
     25 C22         11.4630     5.0980     2.2910 ca         1 18G      -0.105500
     26 C21         11.9310     6.4990     2.4980 ca         1 18G      -0.148000
     27 C20         11.3140     7.3940     2.0520 ca         1 18G      -0.100000
     28 C19         10.2350     7.4040     1.3720 ca         1 18G      -0.148000
     29 C18         10.3310     5.8850     0.1590 ca         1 18G      -0.105500
     30 H1          -0.3260    -0.9090    -0.2610 hn         1 18G       0.434800
     31 H2          -0.7700     0.5530     0.3210 hn         1 18G       0.434800
     32 H3           4.0750     0.8670     2.9080 hn         1 18G       0.464300
     33 H4           4.3860    -0.9250     2.5220 hn         1 18G       0.464300
     34 H5           3.7070     0.7400    -3.2290 hc         1 18G       0.051367
     35 H6           5.1020     0.2940    -2.5870 hc         1 18G       0.051367
     36 H7           4.2170    -0.8210    -3.2320 hc         1 18G       0.051367
     37 H8           8.5880    -0.9670     0.5800 hc         1 18G       0.087700
     38 H9           9.8380    -0.7730    -1.3570 hc         1 18G       0.056700
     39 H10          8.4290    -0.2180    -2.1150 hc         1 18G       0.056700
     40 H11          8.2120    -1.5700    -1.7020 hc         1 18G       0.056700
     41 H12         12.2980     1.7250    -1.4520 h1         1 18G       0.049033
     42 H13         11.6730     0.9400    -2.9130 h1         1 18G       0.049033
     43 H14         11.0820     2.3110    -2.7590 h1         1 18G       0.049033
     44 H15          7.3610     1.6920     1.9230 ha         1 18G       0.134000
     45 H16          9.3780     5.1890     3.7970 h1         1 18G       0.051367
     46 H17          7.9660     4.5270     2.8590 h1         1 18G       0.051367
     47 H18          9.5300     4.9130     2.1060 h1         1 18G       0.051367
     48 H19         11.0770     3.3000    -1.1740 ha         1 18G       0.157000
     49 H20         12.1140     4.3310     2.6940 ha         1 18G       0.170500
     50 H21         12.4630     6.7590     3.4050 ha         1 18G       0.135500
     51 H22         11.7810     8.3710     2.0230 ha         1 18G       0.118000
     52 H23          9.8740     8.0500     0.5810 ha         1 18G       0.135500
     53 H24          9.9350     5.7580    -0.8410 ha         1 18G       0.170500
@<TRIPOS>BOND
     1     1     2 1   
     2     2     3 ar  
     3     2     6 ar  
     4     3     4 ar  
     5     6     7 ar  
     6     4     5 1   
     7     4     9 ar  
     8     7     9 ar  
     9     7     8 1   
    10     9    10 1   
    11    10    11 3   
    12    11    12 1   
    13    12    13 1   
    14    12    14 1   
    15    16    15 1   
    16    16    17 1   
    17    14    18 ar  
    18    14    15 ar  
    19    18    19 ar  
    20    15    23 ar  
    21    19    20 1   
    22    19    22 ar  
    23    21    20 1   
    24    23    22 ar  
    25    22    24 1   
    26    24    25 ar  
    27    24    29 ar  
    28    25    26 ar  
    29    29    28 ar  
    30    26    27 ar  
    31    28    27 ar  
    32     1    30 1   
    33     1    31 1   
    34     5    32 1   
    35     5    33 1   
    36     8    34 1   
    37     8    35 1   
    38     8    36 1   
    39    12    37 1   
    40    13    38 1   
    41    13    39 1   
    42    13    40 1   
    43    17    41 1   
    44    17    42 1   
    45    17    43 1   
    46    18    44 1   
    47    21    45 1   
    48    21    46 1   
    49    21    47 1   
    50    23    48 1   
    51    25    49 1   
    52    26    50 1   
    53    27    51 1   
    54    28    52 1   
    55    29    53 1   
@<TRIPOS>SUBSTRUCTURE
     1 18G         1 TEMP              0 ****  ****    0 ROOT
