@<TRIPOS>MOLECULE
18G
   53    55     1     0     0
SMALL
bcc


@<TRIPOS>ATOM
      1 N2          -0.0630     0.6250    -1.2110 nv         1 18G      -0.931500
      2 C14          1.3040     0.4420    -0.9820 ca         1 18G       0.913900
      3 N1           1.6600    -0.4680    -0.0060 nb         1 18G      -0.837000
      4 C13          2.9960    -0.5520     0.2920 ca         1 18G       0.752200
      5 N            3.3980    -1.3900     1.3070 nv         1 18G      -0.965500
      6 N3           2.1820     1.2270    -1.7230 nb         1 18G      -0.795000
      7 C15          3.4910     1.1120    -1.4240 ca         1 18G       0.535600
      8 C16          4.4770     1.9480    -2.1790 c3         1 18G      -0.156400
      9 C12          3.9740     0.2370    -0.4220 ca         1 18G      -0.339600
     10 C11          5.3300     0.1070    -0.1170 cg         1 18G      -0.082000
     11 C10          6.4760    -0.0570     0.1960 c1         1 18G      -0.145100
     12 C8           7.8440    -0.2710     0.5850 c3         1 18G       0.084700
     13 C9           8.1570     0.4230     1.9050 c3         1 18G      -0.087100
     14 C7           8.1720    -1.7370     0.6690 ca         1 18G      -0.056300
     15 C1           7.4830    -2.6310     1.5140 ca         1 18G       0.096100
     16 O            6.4170    -2.1180     2.2390 os         1 18G      -0.337900
     17 C            6.0760    -2.8300     3.4240 c3         1 18G       0.107700
     18 C6           9.2110    -2.2390    -0.1170 ca         1 18G      -0.171000
     19 C4           9.5730    -3.5910    -0.0580 ca         1 18G       0.109100
     20 O1          10.6270    -4.1140    -0.7860 os         1 18G      -0.325900
     21 C5          11.0350    -3.3610    -1.9230 c3         1 18G       0.112700
     22 C3           8.8850    -4.4870     0.7880 cp         1 18G      -0.025000
     23 C2           7.8400    -3.9820     1.5700 ca         1 18G      -0.160000
     24 C17          9.2220    -5.9070     0.8750 cp         1 18G      -0.033000
     25 C22          8.1990    -6.8670     0.9090 ca         1 18G      -0.109000
     26 C21          8.5090    -8.2210     1.0120 ca         1 18G      -0.135500
     27 C20          9.8390    -8.6330     1.0850 ca         1 18G      -0.125000
     28 C19         10.8610    -7.6840     1.0490 ca         1 18G      -0.135500
     29 C18         10.5570    -6.3290     0.9420 ca         1 18G      -0.109000
     30 H1          -0.6750    -0.0820    -0.8790 hn         1 18G       0.427300
     31 H2          -0.3180     1.0720    -2.0610 hn         1 18G       0.427300
     32 H3           4.3720    -1.5420     1.4350 hn         1 18G       0.445800
     33 H4           2.7520    -2.0150     1.7200 hn         1 18G       0.445800
     34 H5           4.0580     2.3270    -3.1430 hc         1 18G       0.060033
     35 H6           5.3930     1.3450    -2.3930 hc         1 18G       0.060033
     36 H7           4.7640     2.8250    -1.5460 hc         1 18G       0.060033
     37 H8           8.5020     0.1950    -0.2130 hc         1 18G       0.062700
     38 H9           7.9290     1.5130     1.8270 hc         1 18G       0.044700
     39 H10          7.5400    -0.0150     2.7270 hc         1 18G       0.044700
     40 H11          9.2360     0.2940     2.1550 hc         1 18G       0.044700
     41 H12          5.3990    -2.1230     3.9680 h1         1 18G       0.045033
     42 H13          5.5320    -3.7700     3.1630 h1         1 18G       0.045033
     43 H14          6.9810    -3.0600     4.0350 h1         1 18G       0.045033
     44 H15          9.7530    -1.5540    -0.7860 ha         1 18G       0.142000
     45 H16         11.5880    -2.4440    -1.6010 h1         1 18G       0.044700
     46 H17         10.1620    -3.0880    -2.5630 h1         1 18G       0.044700
     47 H18         11.7220    -4.0600    -2.4660 h1         1 18G       0.044700
     48 H19          7.2990    -4.6710     2.2370 ha         1 18G       0.145000
     49 H20          7.1480    -6.5480     0.8420 ha         1 18G       0.139000
     50 H21          7.7000    -8.9670     1.0330 ha         1 18G       0.131000
     51 H22         10.0820    -9.7020     1.1690 ha         1 18G       0.130000
     52 H23         11.9120    -8.0050     1.1020 ha         1 18G       0.131000
     53 H24         11.3650    -5.5810     0.8980 ha         1 18G       0.139000
@<TRIPOS>BOND
     1     1     2 1   
     2     1    30 1   
     3     1    31 1   
     4     2     3 ar  
     5     2     6 ar  
     6     3     4 ar  
     7     4     5 1   
     8     4     9 ar  
     9     5    32 1   
    10     5    33 1   
    11     6     7 ar  
    12     7     8 1   
    13     7     9 ar  
    14     8    34 1   
    15     8    35 1   
    16     8    36 1   
    17     9    10 1   
    18    10    11 3   
    19    11    12 1   
    20    12    13 1   
    21    12    14 1   
    22    12    37 1   
    23    13    38 1   
    24    13    39 1   
    25    13    40 1   
    26    14    15 ar  
    27    14    18 ar  
    28    15    16 1   
    29    15    23 ar  
    30    16    17 1   
    31    17    41 1   
    32    17    42 1   
    33    17    43 1   
    34    18    19 ar  
    35    18    44 1   
    36    19    20 1   
    37    19    22 ar  
    38    20    21 1   
    39    21    45 1   
    40    21    46 1   
    41    21    47 1   
    42    22    23 ar  
    43    22    24 1   
    44    23    48 1   
    45    24    25 ar  
    46    24    29 ar  
    47    25    26 ar  
    48    25    49 1   
    49    26    27 ar  
    50    26    50 1   
    51    27    28 ar  
    52    27    51 1   
    53    28    29 ar  
    54    28    52 1   
    55    29    53 1   
@<TRIPOS>SUBSTRUCTURE
     1 18G         1 TEMP              0 ****  ****    0 ROOT
