@<TRIPOS>MOLECULE
18G
   53    54     1     0     0
SMALL
bcc


@<TRIPOS>ATOM
      1 N2           0.0000     0.0000     0.0000 nv         1 18G      -0.009000
      2 C14          1.3830     0.0000     0.0000 c2         1 18G       0.026000
      3 N1           2.0250     0.0000     1.1590 n2         1 18G      -0.148000
      4 C13          3.3520     0.0000     1.2000 c2         1 18G       0.013000
      5 N            4.0190    -0.0000     2.4110 nv         1 18G      -0.047000
      6 N3           2.0260    -0.0050    -1.1590 n2         1 18G      -0.112000
      7 C15          3.3470    -0.0040    -1.2070 c2         1 18G       0.070000
      8 C16          4.0630    -0.0090    -2.5330 c3         1 18G      -0.095000
      9 C12          4.0700     0.0010    -0.0130 c2         1 18G      -0.089000
     10 C11          5.5020     0.0010    -0.0200 c1         1 18G      -0.097000
     11 C10          6.6760    -0.0200    -0.0280 c1         1 18G      -0.148000
     12 C8           8.1610    -0.2220    -0.0810 c3         1 18G       0.164000
     13 C9           8.7610    -0.7600    -1.2370 c3         1 18G      -0.220000
     14 C7           8.7500     1.1620     0.0950 ca         1 18G      -0.136000
     15 C1           9.8390     1.7250    -0.6050 ca         1 18G       0.061000
     16 O           10.2320     0.8610    -1.6140 os         1 18G      -0.151000
     17 C           11.4170     1.5560    -2.0590 c3         1 18G      -0.030000
     18 C6           8.0610     2.1130     1.2100 ca         1 18G      -0.002000
     19 C4           9.5090     2.6280     1.8930 ca         1 18G       0.044000
     20 O1           9.5100     3.2470     3.1560 os         1 18G      -0.208000
     21 C5           9.0400     4.5410     2.9980 c3         1 18G      -0.079000
     22 C3          10.1980     3.4950     0.8800 ca         1 18G      -0.090000
     23 C2          10.3580     2.9970    -0.4230 ca         1 18G      -0.154000
     24 C17         10.7510     4.9370     1.2070 c2         1 18G      -0.045000
     25 C22         11.4630     5.0980     2.2910 c2         1 18G      -0.033000
     26 C21         11.9310     6.4990     2.4980 c2         1 18G      -0.129000
     27 C20         11.3140     7.3940     2.0520 c2         1 18G      -0.083000
     28 C19         10.2350     7.4040     1.3720 c1         1 18G      -0.105000
     29 C18         10.3310     5.8850     0.1590 c1         1 18G      -0.111000
     30 H1          -0.3260    -0.9090    -0.2610 hn         1 18G       0.064000
     31 H2          -0.7700     0.5530     0.3210 hn         1 18G       0.064000
     32 H3           4.0750     0.8670     2.9080 hn         1 18G       0.099500
     33 H4           4.3860    -0.9250     2.5220 hn         1 18G       0.099500
     34 H5           3.7070     0.7400    -3.2290 hc         1 18G       0.050333
     35 H6           5.1020     0.2940    -2.5870 hc         1 18G       0.050333
     36 H7           4.2170    -0.8210    -3.2320 hc         1 18G       0.050333
     37 H8           8.5880    -0.9670     0.5800 hc         1 18G       0.088000
     38 H9           9.8380    -0.7730    -1.3570 hc         1 18G       0.072667
     39 H10          8.4290    -0.2180    -2.1150 hc         1 18G       0.072667
     40 H11          8.2120    -1.5700    -1.7020 hc         1 18G       0.072667
     41 H12         12.2980     1.7250    -1.4520 h1         1 18G       0.048333
     42 H13         11.6730     0.9400    -2.9130 h1         1 18G       0.048333
     43 H14         11.0820     2.3110    -2.7590 h1         1 18G       0.048333
     44 H15          7.3610     1.6920     1.9230 ha         1 18G       0.090000
     45 H16          9.3780     5.1890     3.7970 h1         1 18G       0.066333
     46 H17          7.9660     4.5270     2.8590 h1         1 18G       0.066333
     47 H18          9.5300     4.9130     2.1060 h1         1 18G       0.066333
     48 H19         11.0770     3.3000    -1.1740 ha         1 18G       0.145000
     49 H20         12.1140     4.3310     2.6940 ha         1 18G       0.131000
     50 H21         12.4630     6.7590     3.4050 ha         1 18G       0.108000
     51 H22         11.7810     8.3710     2.0230 ha         1 18G       0.090000
     52 H23          9.8740     8.0500     0.5810 ha         1 18G       0.111000
     53 H24          9.9350     5.7580    -0.8410 ha         1 18G       0.141000
@<TRIPOS>BOND
     1     1     2 1   
     2     1    30 1   
     3     1    31 1   
     4     2     3 1   
     5     2     6 1   
     6     3     4 1   
     7     4     5 1   
     8     4     9 1   
     9     5    32 1   
    10     5    33 1   
    11     6     7 1   
    12     7     8 1   
    13     7     9 1   
    14     8    34 1   
    15     8    35 1   
    16     8    36 1   
    17     9    10 1   
    18    10    11 1   
    19    11    12 1   
    20    12    13 1   
    21    12    14 1   
    22    12    37 1   
    23    13    38 1   
    24    13    39 1   
    25    13    40 1   
    26    14    15 1   
    27    14    18 1   
    28    15    16 1   
    29    15    23 1   
    30    16    17 1   
    31    17    41 1   
    32    17    42 1   
    33    17    43 1   
    34    18    19 1   
    35    18    44 1   
    36    19    20 1   
    37    19    22 1   
    38    20    21 1   
    39    21    45 1   
    40    21    46 1   
    41    21    47 1   
    42    22    23 1   
    43    22    24 1   
    44    23    48 1   
    45    24    25 1   
    46    24    29 1   
    47    25    26 1   
    48    25    49 1   
    49    26    27 1   
    50    26    50 1   
    51    27    28 1   
    52    27    51 1   
    53    28    52 1   
    54    29    53 1   
@<TRIPOS>SUBSTRUCTURE
     1 18G         1 TEMP              0 ****  ****    0 ROOT
