@<TRIPOS>MOLECULE
18H
   49    51     1     0     0
SMALL
bcc


@<TRIPOS>ATOM
      1 CAB          2.4050    -2.6190    -0.6580 c3         1 18H      -0.156400
      2 C6           2.6610    -1.2160    -0.2050 ca         1 18H       0.534600
      3 N1           3.4900    -1.0120     0.8380 nb         1 18H      -0.792000
      4 C2           3.6910     0.3090     1.2250 ca         1 18H       0.910900
      5 NAD          4.4520     0.5280     2.3790 nv         1 18H      -0.929500
      6 N3           3.1580     1.4220     0.6040 nb         1 18H      -0.833000
      7 C4           2.3330     1.1890    -0.4650 ca         1 18H       0.744200
      8 NAE          1.8230     2.2660    -1.1590 nv         1 18H      -0.960500
      9 C5           2.0320    -0.1550    -0.9010 ca         1 18H      -0.332600
     10 CAF          1.1530    -0.3640    -1.9650 cg         1 18H      -0.089000
     11 CAG          0.3870    -0.4700    -2.8820 c1         1 18H      -0.138100
     12 CBA         -0.5340    -0.5780    -3.9810 c3         1 18H       0.084700
     13 CAC          0.1430    -0.2320    -5.3020 c3         1 18H      -0.087100
     14 CAZ         -1.7520     0.2770    -3.7710 ca         1 18H      -0.092300
     15 CAY         -1.6880     1.6750    -3.5730 ca         1 18H       0.131100
     16 CAO         -2.8530     2.4330    -3.4060 ca         1 18H      -0.193000
     17 OAR         -0.4200     2.2310    -3.5340 os         1 18H      -0.332900
     18 CAA         -0.3520     3.6520    -3.5340 c3         1 18H       0.105700
     19 CAN         -3.0130    -0.3250    -3.7800 ca         1 18H      -0.099000
     20 CAM         -4.1770     0.4210    -3.6090 ca         1 18H      -0.148000
     21 CAW         -4.1060     1.8060    -3.4240 cp         1 18H      -0.002000
     22 CAV         -5.3240     2.5960    -3.2470 cp         1 18H      -0.042000
     23 CAK         -5.4630     3.8400    -3.8790 ca         1 18H      -0.116500
     24 CAI         -6.6270     4.5880    -3.7100 ca         1 18H      -0.130500
     25 CAH         -7.6600     4.1050    -2.9080 ca         1 18H      -0.125000
     26 CAJ         -7.5280     2.8690    -2.2750 ca         1 18H      -0.130500
     27 CAL         -6.3680     2.1160    -2.4440 ca         1 18H      -0.116500
     28 H1           1.3200    -2.7390    -0.8990 hc         1 18H       0.060033
     29 H2           3.0010    -2.8130    -1.5850 hc         1 18H       0.060033
     30 H3           2.6910    -3.3730     0.1150 hc         1 18H       0.060033
     31 H4           4.8070     1.4450     2.5140 hn         1 18H       0.426800
     32 H5           5.0320    -0.2210     2.6780 hn         1 18H       0.426800
     33 H6           1.8890     3.1730    -0.7660 hn         1 18H       0.440300
     34 H7           1.1010     2.0880    -1.8210 hn         1 18H       0.440300
     35 H8          -0.8680    -1.6610    -4.0390 hc         1 18H       0.063700
     36 H9           1.0310    -0.8890    -5.4600 hc         1 18H       0.044033
     37 H10          0.4800     0.8330    -5.2970 hc         1 18H       0.044033
     38 H11         -0.5730    -0.3810    -6.1450 hc         1 18H       0.044033
     39 H12         -2.8010     3.5190    -3.2490 ha         1 18H       0.141000
     40 H13         -0.8940     4.0800    -4.4110 h1         1 18H       0.046367
     41 H14         -0.7630     4.0640    -2.5800 h1         1 18H       0.046367
     42 H15          0.7470     3.8570    -3.6100 h1         1 18H       0.046367
     43 H16         -3.0900    -1.4140    -3.9260 ha         1 18H       0.136000
     44 H17         -5.1560    -0.0800    -3.6270 ha         1 18H       0.139000
     45 H18         -4.6530     4.2210    -4.5180 ha         1 18H       0.135000
     46 H19         -6.7290     5.5610    -4.2130 ha         1 18H       0.132500
     47 H20         -8.5770     4.6970    -2.7740 ha         1 18H       0.133000
     48 H21         -8.3410     2.4860    -1.6400 ha         1 18H       0.132500
     49 H22         -6.2650     1.1430    -1.9400 ha         1 18H       0.135000
@<TRIPOS>BOND
     1     1     2 1   
     2     1    28 1   
     3     1    29 1   
     4     1    30 1   
     5     2     3 ar  
     6     2     9 ar  
     7     3     4 ar  
     8     4     5 1   
     9     4     6 ar  
    10     5    31 1   
    11     5    32 1   
    12     6     7 ar  
    13     7     8 1   
    14     7     9 ar  
    15     8    33 1   
    16     8    34 1   
    17     9    10 1   
    18    10    11 3   
    19    11    12 1   
    20    12    13 1   
    21    12    14 1   
    22    12    35 1   
    23    13    36 1   
    24    13    37 1   
    25    13    38 1   
    26    14    15 ar  
    27    14    19 ar  
    28    15    16 ar  
    29    15    17 1   
    30    16    21 ar  
    31    16    39 1   
    32    17    18 1   
    33    18    40 1   
    34    18    41 1   
    35    18    42 1   
    36    19    20 ar  
    37    19    43 1   
    38    20    21 ar  
    39    20    44 1   
    40    21    22 1   
    41    22    23 ar  
    42    22    27 ar  
    43    23    24 ar  
    44    23    45 1   
    45    24    25 ar  
    46    24    46 1   
    47    25    26 ar  
    48    25    47 1   
    49    26    27 ar  
    50    26    48 1   
    51    27    49 1   
@<TRIPOS>SUBSTRUCTURE
     1 18H         1 TEMP              0 ****  ****    0 ROOT
