@<TRIPOS>MOLECULE
18H
   49    51     1     0     0
SMALL
bcc


@<TRIPOS>ATOM
      1 CAB          0.0000     0.0000     0.0000 c3         1 18H      -0.046400
      2 C6           1.5070     0.0000     0.0000 ca         1 18H       0.494600
      3 N1           2.1780     0.0000     1.1400 nb         1 18H      -0.721000
      4 C2           3.5030    -0.0010     1.1540 ca         1 18H       0.733900
      5 NAD          4.1600    -0.0010     2.3720 nv         1 18H      -0.498500
      6 N3           4.2170    -0.0010     0.0390 nb         1 18H      -0.742000
      7 C4           3.6220    -0.0010    -1.1480 ca         1 18H       0.589200
      8 NAE          4.3720    -0.0020    -2.3100 nv         1 18H      -0.580500
      9 C5           2.2140    -0.0050    -1.2040 ca         1 18H      -0.294600
     10 CAF          1.5270    -0.0110    -2.4590 cg         1 18H      -0.097000
     11 CAG          0.9780    -0.0030    -3.4960 c1         1 18H      -0.123100
     12 CBA          0.3690    -0.1390    -4.6250 c3         1 18H       0.113700
     13 CAC          0.0280    -1.6970    -4.7290 c3         1 18H       0.026900
     14 CAZ          1.0660     0.3860    -5.7840 ca         1 18H      -0.069300
     15 CAY          0.9530     1.4110    -6.5870 ca         1 18H       0.125100
     16 CAO          1.6980     1.8720    -7.4160 ca         1 18H      -0.136000
     17 OAR         -0.4040     1.9890    -6.2220 os         1 18H      -0.388900
     18 CAA         -0.4040     3.5700    -6.2210 c3         1 18H       0.247700
     19 CAN          2.4620    -0.3160    -6.0990 ca         1 18H      -0.086000
     20 CAM          3.1170     0.2160    -6.8260 ca         1 18H      -0.087000
     21 CAW          2.9180     1.3080    -7.5480 cp         1 18H       0.022000
     22 CAV          3.7050     2.1330    -8.7440 cp         1 18H      -0.011000
     23 CAK          4.5650     1.3910    -9.7140 ca         1 18H      -0.110000
     24 CAI          5.4810     1.7620   -10.5140 ca         1 18H      -0.086500
     25 CAH          5.8240     3.3160   -10.2070 ca         1 18H      -0.094000
     26 CAJ          5.3550     3.9910    -9.3630 ca         1 18H      -0.086500
     27 CAL          4.1670     3.5270    -8.7320 ca         1 18H      -0.110000
     28 H1          -0.3610    -0.9030    -0.4770 hc         1 18H       0.019033
     29 H2          -0.3610     0.0380     1.0210 hc         1 18H       0.019033
     30 H3          -0.3610     0.8650    -0.5430 hc         1 18H       0.019033
     31 H4           3.6350     0.0240     3.2240 hn         1 18H       0.274300
     32 H5           5.1600    -0.0230     2.4010 hn         1 18H       0.274300
     33 H6           5.0660     0.7040    -2.4580 hn         1 18H       0.276800
     34 H7           4.2190    -0.7070    -3.0040 hn         1 18H       0.276800
     35 H8          -0.5710     0.3930    -4.5510 hc         1 18H       0.058700
     36 H9          -0.1980    -1.9490    -5.7580 hc         1 18H       0.004700
     37 H10         -0.8290    -1.9210    -4.1060 hc         1 18H       0.004700
     38 H11          0.8800    -2.2760    -4.3940 hc         1 18H       0.004700
     39 H12          1.4270     2.7570    -7.9780 ha         1 18H       0.133000
     40 H13         -1.3030     3.9300    -5.7340 h1         1 18H      -0.005967
     41 H14         -0.3760     3.9320    -7.2410 h1         1 18H      -0.005967
     42 H15          0.4650     3.9310    -5.6850 h1         1 18H      -0.005967
     43 H16          2.7850    -1.2130    -5.5830 ha         1 18H       0.109000
     44 H17          4.0820    -0.2510    -6.9840 ha         1 18H       0.083000
     45 H18          4.2770     0.3540    -9.8400 ha         1 18H       0.081500
     46 H19          5.9870     1.1360   -11.2380 ha         1 18H       0.117500
     47 H20          6.6630     3.7300   -10.7520 ha         1 18H       0.078000
     48 H21          5.6480     5.0310    -9.2830 ha         1 18H       0.117500
     49 H22          3.7420     4.1690    -7.9700 ha         1 18H       0.081500
@<TRIPOS>BOND
     1     1     2 1   
     2     1    28 1   
     3     1    29 1   
     4     1    30 1   
     5     2     3 ar  
     6     2     9 ar  
     7     3     4 ar  
     8     4     5 1   
     9     4     6 ar  
    10     5    31 1   
    11     5    32 1   
    12     6     7 ar  
    13     7     8 1   
    14     7     9 ar  
    15     8    33 1   
    16     8    34 1   
    17     9    10 1   
    18    10    11 3   
    19    11    12 1   
    20    12    13 1   
    21    12    14 1   
    22    12    35 1   
    23    13    36 1   
    24    13    37 1   
    25    13    38 1   
    26    14    15 ar  
    27    14    19 ar  
    28    15    16 ar  
    29    15    17 1   
    30    16    21 ar  
    31    16    39 1   
    32    17    18 1   
    33    18    40 1   
    34    18    41 1   
    35    18    42 1   
    36    19    20 ar  
    37    19    43 1   
    38    20    21 ar  
    39    20    44 1   
    40    21    22 1   
    41    22    23 ar  
    42    22    27 ar  
    43    23    24 ar  
    44    23    45 1   
    45    24    25 ar  
    46    24    46 1   
    47    25    26 ar  
    48    25    47 1   
    49    26    27 ar  
    50    26    48 1   
    51    27    49 1   
@<TRIPOS>SUBSTRUCTURE
     1 18H         1 TEMP              0 ****  ****    0 ROOT
