@<TRIPOS>MOLECULE
18I
   60    64     1     0     0
SMALL
bcc


@<TRIPOS>ATOM
      1 C1           0.2310    -0.3000     0.5860 ca         1 18I      -0.270800
      2 F1         -14.1510     0.5810     7.3420 f          1 18I      -0.121900
      3 N1           1.9200    -1.3690     1.9640 nb         1 18I      -0.653000
      4 O1          -6.8850     0.7060     1.6040 o          1 18I      -0.445100
      5 C2           1.4820    -0.9030     0.7780 ca         1 18I       0.421200
      6 F2          -6.2830     2.4140     5.3410 f          1 18I      -0.141900
      7 C3           1.0910    -1.2370     3.0140 ca         1 18I       0.421200
      8 N3          -5.1760     1.3000     3.0820 ny         1 18I      -0.673800
      9 C4          -0.1860    -0.6500     2.9460 ca         1 18I      -0.270800
     10 N4          -4.0360     1.8720    -2.4270 na         1 18I      -0.165400
     11 C5          -0.6320    -0.1680     1.7010 ca         1 18I       0.068600
     12 C6          -2.8900     0.5430     2.4230 c          1 18I       0.656100
     13 C7          -4.2270     1.1730     1.9230 c3         1 18I       0.033500
     14 C9          -7.5440     0.9460     3.9030 ca         1 18I      -0.257600
     15 C10         -8.7190     0.1860     3.7250 ca         1 18I      -0.021000
     16 C11         -9.6760     0.1030     4.7240 ca         1 18I      -0.142000
     17 C12         -9.5030     0.7870     5.9410 cp         1 18I       0.090000
     18 C13        -10.5120     0.7010     6.9920 cp         1 18I      -0.071000
     19 C14        -10.1280     0.6390     8.3390 ca         1 18I      -0.115000
     20 C15        -11.0940     0.5500     9.3400 ca         1 18I      -0.100000
     21 C16        -12.4480     0.5300     9.0210 ca         1 18I      -0.129000
     22 C17        -12.8380     0.5960     7.6690 ca         1 18I       0.136900
     23 C18        -11.8710     0.6780     6.6520 ca         1 18I      -0.141000
     24 C19         -8.3490     1.5600     6.1320 ca         1 18I      -0.159000
     25 C20         -7.3750     1.6420     5.1260 ca         1 18I       0.175900
     26 C21         -4.0020     2.5250     1.2180 c3         1 18I      -0.002200
     27 C22         -3.7330     2.3330    -0.2100 cc         1 18I      -0.231400
     28 C23         -4.6270     1.8430    -1.1730 cd         1 18I      -0.066100
     29 C24         -2.7490     2.4110    -2.3030 ca         1 18I      -0.051200
     30 C25         -1.7650     2.6670    -3.2720 ca         1 18I      -0.125000
     31 C26         -0.5720     3.2240    -2.8420 ca         1 18I      -0.103000
     32 C27         -0.3440     3.5260    -1.4860 ca         1 18I      -0.128000
     33 C28         -1.3040     3.2760    -0.5190 ca         1 18I      -0.109000
     34 C29         -2.5220     2.7110    -0.9080 ca         1 18I      -0.098800
     35 N2          -1.8910     0.4420     1.5000 ns         1 18I      -0.423100
     36 O2          -2.8340     0.1470     3.6070 o          1 18I      -0.614100
     37 C8          -6.6170     0.9650     2.7720 c          1 18I       0.584700
     38 H1          -0.0530     0.0570    -0.4140 ha         1 18I       0.164500
     39 H2           2.1800    -1.0210    -0.0730 h4         1 18I       0.038100
     40 HN2         -2.0420     0.8370     0.5890 hn         1 18I       0.357500
     41 H3           1.4700    -1.6260     3.9790 h4         1 18I       0.038100
     42 HN3         -4.8550     0.6710     3.8460 hn         1 18I       0.479300
     43 H4          -0.7990    -0.5840     3.8570 ha         1 18I       0.164500
     44 HN4         -4.4680     1.6160    -3.2780 hn         1 18I       0.316700
     45 H7          -4.6860     0.4420     1.1850 hx         1 18I       0.141700
     46 H10         -8.8700    -0.3500     2.7700 ha         1 18I       0.172000
     47 H11        -10.5800    -0.5090     4.5650 ha         1 18I       0.176000
     48 H14         -9.0620     0.6460     8.6110 ha         1 18I       0.142000
     49 H15        -10.7840     0.4950    10.3960 ha         1 18I       0.156000
     50 H16        -13.2170     0.4640     9.8070 ha         1 18I       0.168000
     51 H18        -12.1950     0.7380     5.6020 ha         1 18I       0.155000
     52 H19         -8.2010     2.1220     7.0700 ha         1 18I       0.183000
     53 H21         -4.9170     3.1730     1.3280 hc         1 18I       0.074700
     54 H21A        -3.1460     3.0660     1.7040 hc         1 18I       0.074700
     55 H23         -5.6480     1.4740    -1.0400 h4         1 18I       0.177000
     56 H25         -1.9390     2.4390    -4.3330 ha         1 18I       0.150000
     57 H26          0.2200     3.4420    -3.5770 ha         1 18I       0.150000
     58 H27          0.6190     3.9760    -1.1960 ha         1 18I       0.148000
     59 H28         -1.1190     3.5270     0.5360 ha         1 18I       0.135000
     60 H32         -5.1380     2.2620     3.4460 hn         1 18I       0.479300
@<TRIPOS>BOND
     1     1     5 ar  
     2     1    11 ar  
     3     1    38 1   
     4     2    22 1   
     5     3     5 ar  
     6     3     7 ar  
     7     4    37 2   
     8     5    39 1   
     9     6    25 1   
    10     7     9 ar  
    11     7    41 1   
    12     8    13 1   
    13     8    37 1   
    14     8    42 1   
    15     8    60 1   
    16     9    11 ar  
    17     9    43 1   
    18    10    28 1   
    19    10    29 1   
    20    10    44 1   
    21    11    35 1   
    22    12    13 1   
    23    12    35 1   
    24    12    36 2   
    25    13    26 1   
    26    13    45 1   
    27    14    15 ar  
    28    14    25 ar  
    29    14    37 1   
    30    15    16 ar  
    31    15    46 1   
    32    16    17 ar  
    33    16    47 1   
    34    17    18 1   
    35    17    24 ar  
    36    18    19 ar  
    37    18    23 ar  
    38    19    20 ar  
    39    19    48 1   
    40    20    21 ar  
    41    20    49 1   
    42    21    22 ar  
    43    21    50 1   
    44    22    23 ar  
    45    23    51 1   
    46    24    25 ar  
    47    24    52 1   
    48    26    27 1   
    49    26    53 1   
    50    26    54 1   
    51    27    28 2   
    52    27    34 1   
    53    28    55 1   
    54    29    30 ar  
    55    29    34 ar  
    56    30    31 ar  
    57    30    56 1   
    58    31    32 ar  
    59    31    57 1   
    60    32    33 ar  
    61    32    58 1   
    62    33    34 ar  
    63    33    59 1   
    64    35    40 1   
@<TRIPOS>SUBSTRUCTURE
     1 18I         1 TEMP              0 ****  ****    0 ROOT
