@<TRIPOS>MOLECULE
18I
   59    63     1     0     0
SMALL
bcc


@<TRIPOS>ATOM
      1 C1           0.0000     0.0000     0.0000 ca         1 18I      -0.241800
      2 F1          -7.7120     7.0330    10.1250 f          1 18I      -0.127900
      3 N1           2.0570     0.0000     1.1320 nb         1 18I      -0.598000
      4 O1          -4.2870    -0.4210     4.9040 o          1 18I      -0.640100
      5 C2           1.3790     0.0000     0.0000 ca         1 18I       0.422200
      6 F2          -4.7110    -0.3720     7.3620 f          1 18I      -0.107900
      7 C3           1.4530     0.0020     2.3060 ca         1 18I       0.422200
      8 N3          -4.6650     1.2960     3.5470 ns         1 18I      -0.165900
      9 C4           0.0760     0.0030     2.3920 ca         1 18I      -0.241800
     10 N4          -8.3710     0.0130     0.8990 na         1 18I       0.365600
     11 C5          -0.6770     0.0020     1.2190 ca         1 18I      -0.060400
     12 C6          -2.7130     0.6310     2.2680 c          1 18I       0.549100
     13 C7          -4.2120     0.5320     2.3830 c3         1 18I      -0.053300
     14 C9          -5.1190     1.4970     5.9430 ca         1 18I      -0.178600
     15 C10         -5.5530     2.8170     5.7880 ca         1 18I      -0.055000
     16 C11         -5.9770     3.5340     6.8830 ca         1 18I      -0.123000
     17 C12         -5.9760     2.9470     8.1480 cp         1 18I       0.014000
     18 C13         -6.4340     3.7230     9.3250 cp         1 18I      -0.015000
     19 C14         -6.4340     3.1380    10.5910 ca         1 18I      -0.106000
     20 C15         -6.8610     3.8650    11.6850 ca         1 18I      -0.070000
     21 C16         -7.2890     5.1700    11.5280 ca         1 18I      -0.128000
     22 C17         -7.2910     5.7570    10.2720 ca         1 18I       0.107900
     23 C18         -6.8610     5.0410     9.1720 ca         1 18I      -0.130000
     24 C19         -5.5440     1.6300     8.3070 ca         1 18I      -0.151000
     25 C20         -5.1240     0.9050     7.2110 ca         1 18I       0.187900
     26 C21         -4.8600     1.0990     1.1170 c3         1 18I       0.066800
     27 C22         -6.3510     0.8890     1.1770 cc         1 18I      -0.171400
     28 C23         -7.0350    -0.1340     0.6400 cd         1 18I      -0.250100
     29 C24         -8.5840     1.1610     1.6280 ca         1 18I      -0.223200
     30 C25         -9.7220     1.7700     2.1450 ca         1 18I      -0.093000
     31 C26         -9.6080     2.9480     2.8500 ca         1 18I      -0.083000
     32 C27         -8.3670     3.5350     3.0510 ca         1 18I      -0.121000
     33 C28         -7.2350     2.9540     2.5520 ca         1 18I      -0.066000
     34 C29         -7.3280     1.7610     1.8350 ca         1 18I      -0.089800
     35 H1          -0.5490     0.0000    -0.9340 ha         1 18I       0.132500
     36 H2           1.9140    -0.0010    -0.9420 h4         1 18I      -0.020400
     37 HN2         -2.5940    -0.5050     0.5770 hn         1 18I       0.170500
     38 H3           2.0460     0.0020     3.2130 h4         1 18I      -0.020400
     39 HN3         -4.9220     2.2580     3.4440 hn         1 18I       0.189500
     40 H4          -0.4140     0.0050     3.3590 ha         1 18I       0.132500
     41 HN4         -9.0860    -0.6210     0.6030 hn         1 18I       0.116700
     42 H7          -4.4980    -0.5060     2.4990 h1         1 18I       0.073700
     43 H10         -5.5550     3.2750     4.8060 ha         1 18I       0.111000
     44 H11         -6.3130     4.5570     6.7620 ha         1 18I       0.117000
     45 H14         -6.0990     2.1160    10.7170 ha         1 18I       0.118000
     46 H15         -6.8610     3.4110    12.6680 ha         1 18I       0.108000
     47 H16         -7.6230     5.7360    12.3890 ha         1 18I       0.119000
     48 H18         -6.7860     5.5250     8.2060 ha         1 18I       0.127000
     49 H19         -5.5440     1.1750     9.2900 ha         1 18I       0.131000
     50 H21         -4.4580     0.5920     0.2480 hc         1 18I       0.022200
     51 H21A        -4.6470     2.1590     1.0470 hc         1 18I       0.022200
     52 H23         -6.5950    -0.9530     0.0840 h4         1 18I       0.140000
     53 H25        -10.6960     1.3190     1.9940 ha         1 18I       0.102000
     54 H26        -10.4960     3.4210     3.2520 ha         1 18I       0.104000
     55 H27         -8.2940     4.4620     3.6080 ha         1 18I       0.103000
     56 H28         -6.2690     3.4190     2.7120 ha         1 18I       0.098000
     57 N2          -2.0720     0.0020     1.2640 ns         1 18I      -0.031100
     58 C8          -4.6640     0.7280     4.7690 c          1 18I       0.606700
     59 O2          -2.0850     1.2760     3.0790 o          1 18I      -0.618100
@<TRIPOS>BOND
     1     1     5 ar  
     2     1    11 ar  
     3     1    35 1   
     4     2    22 1   
     5     3     5 ar  
     6     3     7 ar  
     7     4    58 2   
     8     5    36 1   
     9     6    25 1   
    10     7     9 ar  
    11     7    38 1   
    12     8    13 1   
    13     8    39 1   
    14     8    58 1   
    15     9    11 ar  
    16     9    40 1   
    17    10    28 1   
    18    10    29 1   
    19    10    41 1   
    20    11    57 1   
    21    12    13 1   
    22    12    57 1   
    23    12    59 2   
    24    13    26 1   
    25    13    42 1   
    26    14    15 ar  
    27    14    25 ar  
    28    14    58 1   
    29    15    16 ar  
    30    15    43 1   
    31    16    17 ar  
    32    16    44 1   
    33    17    18 1   
    34    17    24 ar  
    35    18    19 ar  
    36    18    23 ar  
    37    19    20 ar  
    38    19    45 1   
    39    20    21 ar  
    40    20    46 1   
    41    21    22 ar  
    42    21    47 1   
    43    22    23 ar  
    44    23    48 1   
    45    24    25 ar  
    46    24    49 1   
    47    26    27 1   
    48    26    50 1   
    49    26    51 1   
    50    27    28 2   
    51    27    34 1   
    52    28    52 1   
    53    29    30 ar  
    54    29    34 ar  
    55    30    31 ar  
    56    30    53 1   
    57    31    32 ar  
    58    31    54 1   
    59    32    33 ar  
    60    32    55 1   
    61    33    34 ar  
    62    33    56 1   
    63    37    57 1   
@<TRIPOS>SUBSTRUCTURE
     1 18I         1 TEMP              0 ****  ****    0 ROOT
