@<TRIPOS>MOLECULE
18J
   44    47     1     0     0
SMALL
bcc


@<TRIPOS>ATOM
      1 C2           0.0000     0.0000     0.0000 c2         1 18J       0.037000
      2 C3           1.3890     0.0000     0.0000 c2         1 18J      -0.072500
      3 C4           2.0800     0.0000     1.1930 c2         1 18J      -0.156000
      4 C5           1.3800    -0.0000     2.4040 c3         1 18J       0.017000
      5 C6          -0.0180    -0.0000     2.3980 c2         1 18J      -0.156000
      6 C7          -0.7000     0.0000     1.2000 c2         1 18J      -0.072500
      7 C8          -2.2070     0.0010     1.1930 c3         1 18J      -0.057000
      8 C25          4.1440    -3.8520    11.1370 c3         1 18J      -0.077000
      9 C24          3.6060    -2.5510    10.5370 c3         1 18J      -0.551000
     10 S21          4.9790    -1.3960    10.2690 s6         1 18J       2.305000
     11 O23          5.5690    -1.0260    11.5060 o          1 18J      -0.863500
     12 O22          5.7780    -1.8180     9.1710 o          1 18J      -0.863500
     13 C17          3.5560    -0.0070     8.5240 c2         1 18J      -0.096000
     14 C18          2.1650    -0.0050     8.5220 c2         1 18J      -0.056000
     15 C19          1.4750    -0.0030     7.3300 c2         1 18J      -0.176000
     16 C14          2.1740    -0.0030     6.1200 c3         1 18J       0.064000
     17 C15          3.5720    -0.0050     6.1240 c2         1 18J      -0.176000
     18 C16          4.2550    -0.0010     7.3210 c2         1 18J      -0.056000
     19 C12          1.4410    -0.0020     4.8430 c2         1 18J      -0.055000
     20 C11          2.1150    -0.0020     3.6800 c2         1 18J      -0.036000
     21 O1          -0.6770     0.0070    -1.1780 oh         1 18J      -0.247000
     22 C10          2.1410     0.0000    -1.3050 c3         1 18J      -0.057000
     23 H1           3.1630    -0.0000     1.1920 ha         1 18J       0.123000
     24 H2          -0.5640    -0.0000     3.3330 ha         1 18J       0.123000
     25 H3          -2.5640     0.8080     0.5640 hc         1 18J       0.049667
     26 H4          -2.5670    -0.9440     0.8060 hc         1 18J       0.049667
     27 H5          -2.5720     0.1410     2.2030 hc         1 18J       0.049667
     28 H6           4.9140    -4.2560    10.4910 hc         1 18J       0.051667
     29 H7           4.5620    -3.6520    12.1160 hc         1 18J       0.051667
     30 H8           3.3370    -4.5680    11.2280 hc         1 18J       0.051667
     31 H9           2.8900    -2.1090    11.2190 h1         1 18J       0.105500
     32 H10          3.1220    -2.7630     9.5920 h1         1 18J       0.105500
     33 H11          4.3360     0.8370    10.2620 hn         1 18J       0.145000
     34 H12          1.6230    -0.0050     9.4610 ha         1 18J       0.118000
     35 H13          0.3920    -0.0020     7.3300 ha         1 18J       0.121500
     36 H14          4.1180    -0.0030     5.1880 ha         1 18J       0.121500
     37 H15          5.3390    -0.0030     7.3260 ha         1 18J       0.118000
     38 H16          1.9050    -0.8770     5.2800 DU         1 18J       0.062000
     39 H17          1.6490    -0.8770     3.2410 DU         1 18J       0.082000
     40 H18         -0.8480    -0.8810    -1.4470 ho         1 18J       0.196000
     41 H19          1.7620     0.7910    -1.9400 hc         1 18J       0.049667
     42 H20          3.1950     0.1640    -1.1140 hc         1 18J       0.049667
     43 H21          2.0070    -0.9550    -1.7990 hc         1 18J       0.049667
     44 N20          4.2520    -0.0080     9.7330 n7         1 18J      -0.472000
@<TRIPOS>BOND
     1     1     2 1   
     2     1     6 1   
     3     1    21 1   
     4     2     3 1   
     5     2    22 1   
     6     3     4 1   
     7     3    23 1   
     8     4     5 1   
     9     4    20 1   
    10     4    39 1   
    11     5     6 1   
    12     5    24 1   
    13     6     7 1   
    14     7    25 1   
    15     7    26 1   
    16     7    27 1   
    17     8     9 1   
    18     8    28 1   
    19     8    29 1   
    20     8    30 1   
    21     9    10 1   
    22     9    31 1   
    23     9    32 1   
    24    10    11 1   
    25    10    12 1   
    26    10    44 1   
    27    13    14 1   
    28    13    18 1   
    29    13    44 1   
    30    14    15 1   
    31    14    34 1   
    32    15    16 1   
    33    15    35 1   
    34    16    17 1   
    35    16    19 1   
    36    16    38 1   
    37    17    18 1   
    38    17    36 1   
    39    18    37 1   
    40    19    20 1   
    41    19    38 1   
    42    20    39 1   
    43    21    40 1   
    44    22    41 1   
    45    22    42 1   
    46    22    43 1   
    47    33    44 1   
@<TRIPOS>SUBSTRUCTURE
     1 18J         1 TEMP              0 ****  ****    0 ROOT
