@<TRIPOS>MOLECULE
molecule
   44    45     1     0     0
SMALL
bcc


@<TRIPOS>ATOM
      1 C2           0.0000     0.0000     0.0000 ca         1 18J       0.103100
      2 C3           1.3890     0.0000     0.0000 ca         1 18J      -0.099800
      3 C4           2.0800     0.0000     1.1930 ca         1 18J      -0.111000
      4 C5           1.3800    -0.0000     2.4040 ca         1 18J      -0.063800
      5 C6          -0.0180    -0.0000     2.3980 ca         1 18J      -0.111000
      6 C7          -0.7000     0.0000     1.2000 ca         1 18J      -0.099800
      7 C8          -2.2070     0.0010     1.1930 c3         1 18J      -0.042800
      8 C25          4.1440    -3.8520    11.1370 c3         1 18J      -0.072100
      9 C24          3.6060    -2.5510    10.5370 c3         1 18J      -0.224600
     10 S21          4.9790    -1.3960    10.2690 s6         1 18J       1.327900
     11 O23          5.5690    -1.0260    11.5060 o          1 18J      -0.626800
     12 O22          5.7780    -1.8180     9.1710 o          1 18J      -0.626800
     13 C17          3.5560    -0.0070     8.5240 ca         1 18J       0.111600
     14 C18          2.1650    -0.0050     8.5220 ca         1 18J      -0.119500
     15 C19          1.4750    -0.0030     7.3300 ca         1 18J      -0.118500
     16 C14          2.1740    -0.0030     6.1200 ca         1 18J      -0.046800
     17 C15          3.5720    -0.0050     6.1240 ca         1 18J      -0.118500
     18 C16          4.2550    -0.0010     7.3210 ca         1 18J      -0.119500
     19 C12          1.4410    -0.0020     4.8430 ce         1 18J      -0.120200
     20 C11          2.1150    -0.0020     3.6800 cf         1 18J      -0.097200
     21 O1          -0.6770     0.0070    -1.1780 oh         1 18J      -0.519100
     22 C10          2.1410     0.0000    -1.3050 c3         1 18J      -0.042800
     23 H1           3.1630    -0.0000     1.1920 ha         1 18J       0.136000
     24 H2          -0.5640    -0.0000     3.3330 ha         1 18J       0.136000
     25 H3          -2.5720     0.1570     2.2000 hc         1 18J       0.046200
     26 H4          -2.5640     0.7980     0.5510 hc         1 18J       0.046200
     27 H5          -2.5670    -0.9500     0.8210 hc         1 18J       0.046200
     28 H6           3.3420    -4.5760    11.2060 hc         1 18J       0.050700
     29 H7           4.9310    -4.2440    10.5030 hc         1 18J       0.050700
     30 H8           4.5410    -3.6570    12.1260 hc         1 18J       0.050700
     31 H9           3.1220    -2.7630     9.5920 h1         1 18J       0.098700
     32 H10          2.8900    -2.1090    11.2190 h1         1 18J       0.098700
     33 H11          4.3250     0.8340    10.2680 hn         1 18J       0.465800
     34 H12          1.6230    -0.0050     9.4610 ha         1 18J       0.146000
     35 H13          0.3920    -0.0020     7.3300 ha         1 18J       0.138500
     36 H14          4.1180    -0.0030     5.1880 ha         1 18J       0.138500
     37 H15          5.3390    -0.0030     7.3260 ha         1 18J       0.146000
     38 H16          0.3570    -0.0010     4.8400 ha         1 18J       0.135000
     39 H17          3.1980    -0.0030     3.6820 ha         1 18J       0.136000
     40 H18         -0.8330    -0.8810    -1.4560 ho         1 18J       0.418000
     41 H19          1.7760     0.8050    -1.9320 hc         1 18J       0.046200
     42 H20          3.1980     0.1430    -1.1130 hc         1 18J       0.046200
     43 H21          1.9900    -0.9470    -1.8090 hc         1 18J       0.046200
     44 N20          4.2520    -0.0080     9.7330 nu         1 18J      -0.782500
@<TRIPOS>BOND
     1    21     1 1   
     2    22     2 1   
     3     1     2 ar  
     4     1     6 ar  
     5     7     6 1   
     6     2     3 ar  
     7     6     5 ar  
     8     3     4 ar  
     9     5     4 ar  
    10     4    20 1   
    11    20    19 2   
    12    19    16 1   
    13    16    15 ar  
    14    16    17 ar  
    15    15    14 ar  
    16    17    18 ar  
    17    18    13 ar  
    18    14    13 ar  
    19    13    44 1   
    20    44    10 1   
    21    12    10 2   
    22    10     9 1   
    23    10    11 2   
    24     9     8 1   
    25     3    23 1   
    26     5    24 1   
    27     7    25 1   
    28     7    26 1   
    29     7    27 1   
    30     8    28 1   
    31     8    29 1   
    32     8    30 1   
    33     9    31 1   
    34     9    32 1   
    35    44    33 1   
    36    14    34 1   
    37    15    35 1   
    38    17    36 1   
    39    18    37 1   
    40    19    38 1   
    41    20    39 1   
    42    21    40 1   
    43    22    41 1   
    44    22    42 1   
    45    22    43 1   
@<TRIPOS>SUBSTRUCTURE
     1 18J         1 TEMP              0 ****  ****    0 ROOT
