@<TRIPOS>MOLECULE
18J
   44    45     1     0     0
SMALL
bcc


@<TRIPOS>ATOM
      1 C2           0.0190     0.1560    -0.1040 ca         1 18J       0.128100
      2 C3           1.4240     0.2140    -0.0750 ca         1 18J      -0.126800
      3 C4           2.0780     0.0310     1.1460 ca         1 18J      -0.087000
      4 C5           1.3630    -0.2060     2.3250 ca         1 18J      -0.087800
      5 C6          -0.0400    -0.2700     2.2700 ca         1 18J      -0.087000
      6 C7          -0.7250    -0.0890     1.0720 ca         1 18J      -0.126800
      7 C8          -2.2020    -0.1480     1.0090 c3         1 18J      -0.049300
      8 C25          6.1810     1.9000    10.6410 c3         1 18J      -0.068100
      9 C24          7.0970     1.5580     9.4990 c3         1 18J      -0.321600
     10 S21          7.4040    -0.1220     9.3150 s6         1 18J       1.452900
     11 O23          7.7040    -0.6790    10.5760 o          1 18J      -0.646800
     12 O22          8.3870    -0.2510     8.3170 o          1 18J      -0.646800
     13 C17          5.3080    -0.5500     7.6180 ca         1 18J       0.160600
     14 C18          6.0160    -0.2470     6.4330 ca         1 18J      -0.174500
     15 C19          5.3330    -0.0690     5.2380 ca         1 18J      -0.092000
     16 C14          3.9370    -0.1990     5.1660 ca         1 18J      -0.069800
     17 C15          3.2370    -0.5080     6.3400 ca         1 18J      -0.092000
     18 C16          3.9030    -0.6810     7.5470 ca         1 18J      -0.174500
     19 C12          3.2730    -0.0030     3.8890 ce         1 18J      -0.114200
     20 C11          2.0230    -0.4020     3.6040 cf         1 18J      -0.091200
     21 O1          -0.7190     0.3260    -1.2530 oh         1 18J      -0.496100
     22 C10          2.2040     0.4630    -1.3090 c3         1 18J      -0.049300
     23 H1           3.1790     0.0670     1.1710 ha         1 18J       0.134500
     24 H2          -0.6110    -0.4640     3.1920 ha         1 18J       0.134500
     25 H3          -2.6070     0.8260     0.6340 hc         1 18J       0.046367
     26 H4          -2.6450    -0.3610     2.0110 hc         1 18J       0.046367
     27 H5          -2.5230    -0.9470     0.2940 hc         1 18J       0.046367
     28 H6           6.1660     3.0040    10.8120 hc         1 18J       0.049367
     29 H7           5.1350     1.5730    10.4250 hc         1 18J       0.049367
     30 H8           6.5270     1.4040    11.5820 hc         1 18J       0.049367
     31 H9           8.0820     2.0760     9.6670 h1         1 18J       0.117200
     32 H10          6.6910     2.0140     8.5570 h1         1 18J       0.117200
     33 H11          5.4350    -1.2650     9.4960 hn         1 18J       0.458800
     34 H12          7.1170    -0.1640     6.4390 ha         1 18J       0.151500
     35 H13          5.9040     0.1700     4.3270 ha         1 18J       0.137500
     36 H14          2.1410    -0.6110     6.3170 ha         1 18J       0.137500
     37 H15          3.3220    -0.9260     8.4490 ha         1 18J       0.151500
     38 H16          3.8850     0.5120     3.1270 ha         1 18J       0.127000
     39 H17          1.4080    -0.9170     4.3640 ha         1 18J       0.125000
     40 H18         -0.1080     0.4810    -1.9880 ho         1 18J       0.421000
     41 H19          2.0040    -0.3360    -2.0680 hc         1 18J       0.046367
     42 H20          3.3010     0.4720    -1.0970 hc         1 18J       0.046367
     43 H21          1.9290     1.4520    -1.7560 hc         1 18J       0.046367
     44 N20          5.9680    -0.7270     8.8450 nu         1 18J      -0.777500
@<TRIPOS>BOND
     1     1     2 ar  
     2     1     6 ar  
     3     1    21 1   
     4     2     3 ar  
     5     2    22 1   
     6     3     4 ar  
     7     3    23 1   
     8     4     5 ar  
     9     4    20 1   
    10     5     6 ar  
    11     5    24 1   
    12     6     7 1   
    13     7    25 1   
    14     7    26 1   
    15     7    27 1   
    16     8     9 1   
    17     8    28 1   
    18     8    29 1   
    19     8    30 1   
    20     9    10 1   
    21     9    31 1   
    22     9    32 1   
    23    10    11 2   
    24    10    12 2   
    25    10    44 1   
    26    13    14 ar  
    27    13    18 ar  
    28    13    44 1   
    29    14    15 ar  
    30    14    34 1   
    31    15    16 ar  
    32    15    35 1   
    33    16    17 ar  
    34    16    19 1   
    35    17    18 ar  
    36    17    36 1   
    37    18    37 1   
    38    19    20 2   
    39    19    38 1   
    40    20    39 1   
    41    21    40 1   
    42    22    41 1   
    43    22    42 1   
    44    22    43 1   
    45    33    44 1   
@<TRIPOS>SUBSTRUCTURE
     1 18J         1 TEMP              0 ****  ****    0 ROOT
