@<TRIPOS>MOLECULE
molecule
   41    43     1     0     0
SMALL
bcc


@<TRIPOS>ATOM
      1 S            0.0000     0.0000     0.0000 ss         1 18K      -0.228300
      2 C1           1.6490     0.0010     3.6450 c3         1 18K      -0.111400
      3 N1           2.1600     0.0000     1.2190 nc         1 18K      -0.739000
      4 C2           1.2700     0.0000     2.1860 cc         1 18K       0.458600
      5 N2           2.4990    -0.0010    -1.1330 nv         1 18K      -1.008500
      6 C3           1.7090     0.0000     0.0000 cd         1 18K       0.724300
      7 N3          -3.3890     0.0040     4.2120 nb         1 18K      -0.794000
      8 C4          -0.0120     0.0010     1.7620 cd         1 18K      -0.252900
      9 N4          -2.0080     0.0050     6.0970 nu         1 18K      -0.755300
     10 C5          -1.2100     0.0030     2.6210 ca         1 18K       0.610800
     11 N5          -6.4620     0.4750     9.4090 nh         1 18K      -0.743000
     12 C6          -2.4920     0.0020     2.0540 ca         1 18K      -0.440600
     13 N6          -1.0910     0.0030     3.9500 nb         1 18K      -0.803000
     14 C7          -3.5840     0.0030     2.9010 ca         1 18K       0.500200
     15 C8          -2.1660     0.0040     4.7210 ca         1 18K       0.945900
     16 C9          -3.1290     0.1230     6.9310 ca         1 18K       0.100600
     17 C10         -3.2010    -0.6140     8.1050 ca         1 18K      -0.093000
     18 C11         -4.3060    -0.4970     8.9260 ca         1 18K      -0.192500
     19 C12         -5.3430     0.3570     8.5780 ca         1 18K       0.192600
     20 C13         -7.5560     1.3770     9.0410 c3         1 18K       0.233600
     21 C14         -6.5380    -0.3030    10.6480 c3         1 18K       0.233600
     22 C15         -5.2690     1.0950     7.4030 ca         1 18K      -0.192500
     23 C16         -4.1640     0.9820     6.5850 ca         1 18K      -0.093000
     24 H1           1.2480     0.8870     4.1220 hc         1 18K       0.057700
     25 H1A          1.2430    -0.8820     4.1230 hc         1 18K       0.057700
     26 H1B          2.7280    -0.0010     3.7370 hc         1 18K       0.057700
     27 HN2          3.2440    -0.6640    -1.2240 hn         1 18K       0.447300
     28 HN2A         2.3070     0.6400    -1.8780 hn         1 18K       0.447300
     29 HN4         -1.0910    -0.0430     6.4960 hn         1 18K       0.461800
     30 H6          -2.6240     0.0010     0.9790 ha         1 18K       0.146000
     31 H7          -4.5890     0.0030     2.4980 h4         1 18K       0.028100
     32 H10         -2.3920    -1.2820     8.3760 ha         1 18K       0.139000
     33 H11         -4.3620    -1.0720     9.8420 ha         1 18K       0.132500
     34 H13         -8.3240     1.3420     9.8040 h1         1 18K       0.033700
     35 H13A        -7.1770     2.3890     8.9570 h1         1 18K       0.033700
     36 H13B        -7.9750     1.0680     8.0920 h1         1 18K       0.033700
     37 H14         -7.4700    -0.0830    11.1560 h1         1 18K       0.033700
     38 H14A        -6.4950    -1.3600    10.4140 h1         1 18K       0.033700
     39 H14B        -5.7070    -0.0410    11.2910 h1         1 18K       0.033700
     40 H15         -6.0760     1.7650     7.1320 ha         1 18K       0.132500
     41 H16         -4.1070     1.5580     5.6680 ha         1 18K       0.139000
@<TRIPOS>BOND
     1     8     1 1   
     2     1     6 1   
     3     2     4 1   
     4     2    24 1   
     5     2    25 1   
     6     2    26 1   
     7     4     3 1   
     8     3     6 2   
     9     4     8 2   
    10     6     5 1   
    11     5    27 1   
    12     5    28 1   
    13    14     7 ar  
    14     7    15 ar  
    15    10     8 1   
    16    15     9 1   
    17     9    16 1   
    18     9    29 1   
    19    12    10 ar  
    20    10    13 ar  
    21    19    11 1   
    22    20    11 1   
    23    11    21 1   
    24    14    12 ar  
    25    12    30 1   
    26    15    13 ar  
    27    14    31 1   
    28    16    17 ar  
    29    16    23 ar  
    30    17    18 ar  
    31    17    32 1   
    32    18    19 ar  
    33    18    33 1   
    34    22    19 ar  
    35    20    34 1   
    36    20    35 1   
    37    20    36 1   
    38    21    37 1   
    39    21    38 1   
    40    21    39 1   
    41    23    22 ar  
    42    22    40 1   
    43    23    41 1   
@<TRIPOS>SUBSTRUCTURE
     1 18K         1 TEMP              0 ****  ****    0 ROOT
