@<TRIPOS>MOLECULE
18K
   41    43     1     0     0
SMALL
bcc


@<TRIPOS>ATOM
      1 S            0.3940     1.0090     0.1750 ss         1 18K      -0.039300
      2 C1           1.2100    -1.4550     3.2020 c3         1 18K      -0.134400
      3 N1           2.2640    -0.4950     1.1650 nc         1 18K      -0.698000
      4 C2           1.1650    -0.5820     2.0040 cc         1 18K       0.410600
      5 N2           2.9090     0.7600    -0.8300 nv         1 18K      -0.887500
      6 C3           1.9920     0.3430     0.1360 cd         1 18K       0.591300
      7 N3          -3.7270     0.4560     3.4930 nb         1 18K      -0.747000
      8 C4           0.0600     0.1780     1.6010 cd         1 18K      -0.305900
      9 N4          -4.7240     0.6900     1.3420 nu         1 18K      -0.696300
     10 C5          -1.2330     0.2750     2.2560 ca         1 18K       0.570800
     11 N5          -5.1790    -0.7830    -4.1200 nh         1 18K      -0.640000
     12 C6          -1.3200     0.2830     3.6660 ca         1 18K      -0.404600
     13 N6          -2.3340     0.3780     1.4650 nb         1 18K      -0.742000
     14 C7          -2.6090     0.3720     4.2230 ca         1 18K       0.462200
     15 C8          -3.5540     0.4790     2.1070 ca         1 18K       0.867900
     16 C9          -4.7900     0.3030    -0.0200 ca         1 18K       0.093600
     17 C10         -5.7360    -0.6560    -0.4410 ca         1 18K      -0.109500
     18 C11         -5.8750    -0.9800    -1.7820 ca         1 18K      -0.157000
     19 C12         -5.0680    -0.3660    -2.7680 ca         1 18K       0.125600
     20 C13         -6.4970    -0.6710    -4.7020 c3         1 18K       0.172600
     21 C14         -4.1220    -0.3650    -5.0080 c3         1 18K       0.172600
     22 C15         -4.1260     0.5930    -2.3400 ca         1 18K      -0.157000
     23 C16         -3.9870     0.9220    -0.9960 ca         1 18K      -0.109500
     24 H1           1.6050    -0.8750     4.0750 hc         1 18K       0.057033
     25 H1A          0.1830    -1.8230     3.4450 hc         1 18K       0.057033
     26 H1B          1.8780    -2.3370     3.0380 hc         1 18K       0.057033
     27 HN2          3.8160     0.3460    -0.7410 hn         1 18K       0.398300
     28 HN2A         2.5490     0.6790    -1.7590 hn         1 18K       0.398300
     29 HN4         -5.5720     0.5170     1.8470 hn         1 18K       0.433800
     30 H6          -0.4260     0.2360     4.2960 ha         1 18K       0.159000
     31 H7          -2.7540     0.3700     5.3190 h4         1 18K       0.027100
     32 H10         -6.3810    -1.1610     0.2960 ha         1 18K       0.141500
     33 H11         -6.6150    -1.7440    -2.0680 ha         1 18K       0.136000
     34 H13         -6.5340    -1.3220    -5.6150 h1         1 18K       0.036533
     35 H13A        -7.2720    -1.0260    -3.9750 h1         1 18K       0.036533
     36 H13B        -6.7470     0.3830    -5.0050 h1         1 18K       0.036533
     37 H14         -4.2260    -0.9340    -5.9700 h1         1 18K       0.036533
     38 H14A        -3.1300    -0.6150    -4.5480 h1         1 18K       0.036533
     39 H14B        -4.1470     0.7350    -5.2430 h1         1 18K       0.036533
     40 H15         -3.4790     1.1060    -3.0680 ha         1 18K       0.136000
     41 H16         -3.2400     1.6770    -0.7060 ha         1 18K       0.141500
@<TRIPOS>BOND
     1     1     6 1   
     2     1     8 1   
     3     2     4 1   
     4     2    24 1   
     5     2    25 1   
     6     2    26 1   
     7     3     4 1   
     8     3     6 2   
     9     4     8 2   
    10     5     6 1   
    11     5    27 1   
    12     5    28 1   
    13     7    14 ar  
    14     7    15 ar  
    15     8    10 1   
    16     9    15 1   
    17     9    16 1   
    18     9    29 1   
    19    10    12 ar  
    20    10    13 ar  
    21    11    19 1   
    22    11    20 1   
    23    11    21 1   
    24    12    14 ar  
    25    12    30 1   
    26    13    15 ar  
    27    14    31 1   
    28    16    17 ar  
    29    16    23 ar  
    30    17    18 ar  
    31    17    32 1   
    32    18    19 ar  
    33    18    33 1   
    34    19    22 ar  
    35    20    34 1   
    36    20    35 1   
    37    20    36 1   
    38    21    37 1   
    39    21    38 1   
    40    21    39 1   
    41    22    23 ar  
    42    22    40 1   
    43    23    41 1   
@<TRIPOS>SUBSTRUCTURE
     1 18K         1 TEMP              0 ****  ****    0 ROOT
