@<TRIPOS>MOLECULE
18L
   66    65     1     0     0
SMALL
bcc


@<TRIPOS>ATOM
      1 C1          0.0850    0.7090   -0.2810 c3        1 18L      0.218400
      2 O1          1.4460    0.5020   -2.8030 o         1 18L     -0.927833
      3 P1         -0.0430    0.7050   -2.8880 p5        1 18L      1.308900
      4 C2          1.0990   -0.2380    0.4230 c3        1 18L      0.084100
      5 O2         -0.5000    2.1310   -2.7470 o         1 18L     -0.927833
      6 C3          1.4170    0.2870    1.8190 c3        1 18L      0.141400
      7 O3         -0.8060   -0.1760   -3.8330 o         1 18L     -0.927833
      8 C4          3.1910   -0.0170    3.4020 c         1 18L      0.626100
      9 O4         -0.5090    0.0510   -1.3190 os        1 18L     -0.559200
     10 C5          4.5640   -0.5940    3.6110 c3        1 18L     -0.135400
     11 O5          0.5560   -1.5440    0.5750 oh        1 18L     -0.663800
     12 C6          5.3590    0.2290    4.5990 c3        1 18L     -0.077400
     13 O6          2.7450   -0.1940    2.1420 os        1 18L     -0.410900
     14 C7          6.6870   -0.4280    4.9070 c3        1 18L     -0.078400
     15 O7          2.4890    0.5510    4.2490 o         1 18L     -0.593000
     16 C8          7.4940    0.4000    5.8840 c3        1 18L     -0.078400
     17 C9          8.8230   -0.2560    6.1930 c3        1 18L     -0.079400
     18 C10         9.6280    0.5680    7.1760 c3        1 18L     -0.077400
     19 C11        10.9570   -0.0900    7.4810 c3        1 18L     -0.052200
     20 C12        11.7670    0.6900    8.4450 c2        1 18L     -0.162200
     21 C13        13.0010    0.3470    8.8320 c2        1 18L     -0.184200
     22 C14        13.7070   -0.8560    8.3330 c3        1 18L     -0.019000
     23 C15        15.0160   -1.0960    8.9850 c2        1 18L     -0.164200
     24 C16        15.8360   -2.0980    8.6480 c2        1 18L     -0.182200
     25 C17        15.5360   -3.0830    7.5830 c3        1 18L     -0.049200
     26 C18        16.6230   -4.1290    7.4440 c3        1 18L     -0.075400
     27 C19        16.2890   -5.1220    6.3510 c3        1 18L     -0.081400
     28 C20        17.3730   -6.1700    6.2080 c3        1 18L     -0.079400
     29 C21        17.0440   -7.1600    5.1220 c3        1 18L     -0.093100
     30 H1         -0.6900    0.9990    0.4920 h1        1 18L     -0.005300
     31 H1A         0.6310    1.6300   -0.6250 h1        1 18L     -0.005300
     32 H2          2.0310   -0.3130   -0.2030 h1        1 18L      0.086700
     33 H3          1.4500    1.4060    1.8340 h1        1 18L      0.045200
     34 H3A         0.6990   -0.0940    2.5870 h1        1 18L      0.045200
     35 H5          4.4330   -1.6430    3.9880 hc        1 18L      0.071700
     36 H5A         5.0950   -0.6500    2.6240 hc        1 18L      0.071700
     37 HO5        -0.0300   -1.6690   -0.1920 ho        1 18L      0.447000
     38 H6          5.5310    1.2550    4.1780 hc        1 18L      0.053200
     39 H6A         4.7630    0.3560    5.5420 hc        1 18L      0.053200
     40 H7          7.2690   -0.5620    3.9570 hc        1 18L      0.038200
     41 H7A         6.5120   -1.4500    5.3340 hc        1 18L      0.038200
     42 H8          7.6690    1.4220    5.4550 hc        1 18L      0.040700
     43 H8A         6.9100    0.5350    6.8330 hc        1 18L      0.040700
     44 H9          9.4070   -0.3860    5.2440 hc        1 18L      0.038200
     45 H9A         8.6470   -1.2800    6.6170 hc        1 18L      0.038200
     46 H10         9.0440    0.6970    8.1250 hc        1 18L      0.041200
     47 H10A        9.8030    1.5920    6.7530 hc        1 18L      0.041200
     48 H11        11.5380   -0.2240    6.5260 hc        1 18L      0.047700
     49 H11A       10.7790   -1.1220    7.8950 hc        1 18L      0.047700
     50 H12        11.2920    1.6010    8.8460 ha        1 18L      0.123000
     51 H13        13.5500    0.9730    9.5540 ha        1 18L      0.117000
     52 H14        13.8580   -0.7590    7.2190 hc        1 18L      0.058200
     53 H14A       13.0500   -1.7630    8.4790 hc        1 18L      0.058200
     54 H15        15.2990   -0.3950    9.7870 ha        1 18L      0.119000
     55 H16        16.7980   -2.2290    9.1700 ha        1 18L      0.117000
     56 H17        14.5560   -3.5880    7.8050 hc        1 18L      0.050200
     57 H17A       15.4050   -2.5460    6.6030 hc        1 18L      0.050200
     58 H18        17.6000   -3.6290    7.2120 hc        1 18L      0.037700
     59 H18A       16.7510   -4.6710    8.4180 hc        1 18L      0.037700
     60 H19        15.3120   -5.6220    6.5830 hc        1 18L      0.042700
     61 H19A       16.1600   -4.5810    5.3770 hc        1 18L      0.042700
     62 H20        18.3490   -5.6670    5.9770 hc        1 18L      0.035700
     63 H20A       17.5020   -6.7090    7.1840 hc        1 18L      0.035700
     64 H21        16.9350   -6.6440    4.1370 hc        1 18L      0.033033
     65 H21A       16.0860   -7.6880    5.3470 hc        1 18L      0.033033
     66 H21B       17.8550   -7.9230    5.0320 hc        1 18L      0.033033
@<TRIPOS>BOND
     1    1    4 1   
     2    1    9 1   
     3    1   30 1   
     4    1   31 1   
     5    2    3 1   
     6    3    5 1   
     7    3    7 1   
     8    3    9 1   
     9    4    6 1   
    10    4   11 1   
    11    4   32 1   
    12    6   13 1   
    13    6   33 1   
    14    6   34 1   
    15    8   10 1   
    16    8   13 1   
    17    8   15 2   
    18   10   12 1   
    19   10   35 1   
    20   10   36 1   
    21   11   37 1   
    22   12   14 1   
    23   12   38 1   
    24   12   39 1   
    25   14   16 1   
    26   14   40 1   
    27   14   41 1   
    28   16   17 1   
    29   16   42 1   
    30   16   43 1   
    31   17   18 1   
    32   17   44 1   
    33   17   45 1   
    34   18   19 1   
    35   18   46 1   
    36   18   47 1   
    37   19   20 1   
    38   19   48 1   
    39   19   49 1   
    40   20   21 2   
    41   20   50 1   
    42   21   22 1   
    43   21   51 1   
    44   22   23 1   
    45   22   52 1   
    46   22   53 1   
    47   23   24 2   
    48   23   54 1   
    49   24   25 1   
    50   24   55 1   
    51   25   26 1   
    52   25   56 1   
    53   25   57 1   
    54   26   27 1   
    55   26   58 1   
    56   26   59 1   
    57   27   28 1   
    58   27   60 1   
    59   27   61 1   
    60   28   29 1   
    61   28   62 1   
    62   28   63 1   
    63   29   64 1   
    64   29   65 1   
    65   29   66 1   
@<TRIPOS>SUBSTRUCTURE
     1 18L         1 TEMP              0 ****  ****    0 ROOT
