@<TRIPOS>MOLECULE
molecule
   66    65     1     0     0
SMALL
bcc


@<TRIPOS>ATOM
      1 C1           0.0000     0.0000     0.0000 c3         1 18L       0.219400
      2 O1          -2.7100     1.4760    -1.0950 o          1 18L      -0.830833
      3 P1          -2.0420     0.1490    -1.7160 p5         1 18L       1.198900
      4 C2           1.5310     0.0000     0.0000 c3         1 18L       0.135100
      5 O2          -2.7080    -1.0470    -1.1550 o          1 18L      -0.830833
      6 C3           2.0410     0.0000     1.4420 c3         1 18L       0.127400
      7 O3          -2.2110     0.1570    -3.3180 o          1 18L      -0.830833
      8 C4           4.0970     0.1360     2.6400 c          1 18L       0.628100
      9 O4          -0.4770     0.1170    -1.3410 os         1 18L      -0.579200
     10 C5           5.5970     0.2570     2.7200 c3         1 18L      -0.130400
     11 O5           2.0070    -1.1660    -0.6740 oh         1 18L      -0.596800
     12 C6           6.0310     0.2510     4.1870 c3         1 18L      -0.071400
     13 O6           3.4880     0.1200     1.4440 os         1 18L      -0.427900
     14 C7           7.5540     0.3750     4.2690 c3         1 18L      -0.085400
     15 O7           3.4420     0.0520     3.6520 o          1 18L      -0.565000
     16 C8           7.9890     0.3670     5.7350 c3         1 18L      -0.078400
     17 C9           9.5110     0.4910     5.8170 c3         1 18L      -0.091400
     18 C10          9.9460     0.4850     7.2840 c3         1 18L      -0.090400
     19 C11         11.4690     0.6080     7.3650 c3         1 18L       0.028800
     20 C12         11.8970     0.6010     8.8100 c2         1 18L      -0.274200
     21 C13         12.8180    -0.2360     9.2160 c2         1 18L      -0.205200
     22 C14         13.5700    -1.0730     8.2140 c3         1 18L       0.247000
     23 C15         15.0530    -0.8800     8.4110 c2         1 18L      -0.204200
     24 C16         15.8340    -1.9210     8.5560 c2         1 18L      -0.288200
     25 C17         15.2840    -3.3110     8.3600 c3         1 18L       0.024800
     26 C18         16.1450    -4.0600     7.3410 c3         1 18L      -0.090400
     27 C19         15.5860    -5.4710     7.1400 c3         1 18L      -0.091400
     28 C20         16.4460    -6.2200     6.1210 c3         1 18L      -0.082400
     29 C21         15.8890    -7.6300     5.9210 c3         1 18L      -0.092100
     30 H1          -0.3610    -0.9250     0.4320 h1         1 18L       0.026700
     31 H1A         -0.3610     0.8370     0.5860 h1         1 18L       0.026700
     32 H2           1.8920     0.8850    -0.5110 h1         1 18L       0.040700
     33 H3           1.7550    -0.9260     1.9270 h1         1 18L       0.056200
     34 H3A          1.6080     0.8360     1.9780 h1         1 18L       0.056200
     35 H5           5.9090     1.1840     2.2540 hc         1 18L       0.065200
     36 H5A          6.0550    -0.5780     2.2040 hc         1 18L       0.065200
     37 HO5          2.5210    -0.9090    -1.4220 ho         1 18L       0.395000
     38 H6           5.5730     1.0860     4.7030 hc         1 18L       0.057700
     39 H6A          5.7190    -0.6760     4.6520 hc         1 18L       0.057700
     40 H7           8.0120    -0.4600     3.7520 hc         1 18L       0.037200
     41 H7A          7.8660     1.3020     3.8040 hc         1 18L       0.037200
     42 H8           7.6760    -0.5600     6.2000 hc         1 18L       0.044200
     43 H8A          7.5300     1.2020     6.2520 hc         1 18L       0.044200
     44 H9           9.8230     1.4180     5.3520 hc         1 18L       0.035700
     45 H9A          9.9690    -0.3440     5.3010 hc         1 18L       0.035700
     46 H10          9.4880     1.3200     7.8000 hc         1 18L       0.051700
     47 H10A         9.6330    -0.4420     7.7490 hc         1 18L       0.051700
     48 H11         11.9260    -0.2270     6.8480 hc         1 18L       0.033700
     49 H11A        11.7810     1.5350     6.9000 hc         1 18L       0.033700
     50 H12         12.4540     1.1570     8.0660 ha         1 18L       0.095000
     51 H13         12.4080    -1.1690     8.8490 ha         1 18L      -0.002000
     52 H14         13.2970    -0.7690     7.2110 hc         1 18L       0.041700
     53 H14A        13.3200    -2.1180     8.3560 hc         1 18L       0.041700
     54 H15         14.6410    -1.0810     7.4290 ha         1 18L      -0.003000
     55 H16         15.3220    -2.4380     9.3590 ha         1 18L       0.094000
     56 H17         14.2660    -3.2480     7.9960 hc         1 18L       0.032700
     57 H17A        15.2990    -3.8420     9.3040 hc         1 18L       0.032700
     58 H18         17.1630    -4.1230     7.7050 hc         1 18L       0.049200
     59 H18A        16.1310    -3.5290     6.3970 hc         1 18L       0.049200
     60 H19         14.5680    -5.4070     6.7760 hc         1 18L       0.037700
     61 H19A        15.6000    -6.0020     8.0840 hc         1 18L       0.037700
     62 H20         16.4320    -5.6890     5.1770 hc         1 18L       0.039200
     63 H20A        17.4650    -6.2820     6.4850 hc         1 18L       0.039200
     64 H21         14.8700    -7.5680     5.5570 hc         1 18L       0.030700
     65 H21A        15.9030    -8.1620     6.8650 hc         1 18L       0.030700
     66 H21B        16.4980    -8.1600     5.1990 hc         1 18L       0.030700
@<TRIPOS>BOND
     1     1     4 1   
     2     1     9 1   
     3     1    30 1   
     4     1    31 1   
     5     2     3 1   
     6     5     3 1   
     7     3     9 1   
     8     3     7 1   
     9    11     4 1   
    10     4     6 1   
    11     4    32 1   
    12     6    13 1   
    13     6    33 1   
    14     6    34 1   
    15    13     8 1   
    16     8    15 2   
    17     8    10 1   
    18    12    10 1   
    19    10    35 1   
    20    10    36 1   
    21    11    37 1   
    22    12    14 1   
    23    12    38 1   
    24    12    39 1   
    25    16    14 1   
    26    14    40 1   
    27    14    41 1   
    28    16    17 1   
    29    16    42 1   
    30    16    43 1   
    31    18    17 1   
    32    17    44 1   
    33    17    45 1   
    34    18    19 1   
    35    18    46 1   
    36    18    47 1   
    37    20    19 1   
    38    19    48 1   
    39    19    49 1   
    40    21    20 2   
    41    20    50 1   
    42    21    22 1   
    43    21    51 1   
    44    23    22 1   
    45    22    52 1   
    46    22    53 1   
    47    24    23 2   
    48    23    54 1   
    49    25    24 1   
    50    24    55 1   
    51    26    25 1   
    52    25    56 1   
    53    25    57 1   
    54    27    26 1   
    55    26    58 1   
    56    26    59 1   
    57    28    27 1   
    58    27    60 1   
    59    27    61 1   
    60    29    28 1   
    61    28    62 1   
    62    28    63 1   
    63    29    64 1   
    64    29    65 1   
    65    29    66 1   
@<TRIPOS>SUBSTRUCTURE
     1 18L         1 TEMP              0 ****  ****    0 ROOT
