@<TRIPOS>MOLECULE
molecule
   22    24     1     0     0
SMALL
bcc


@<TRIPOS>ATOM
      1 CAO          0.0000     0.0000     0.0000 ca         1 18N       0.014000
      2 CAM          1.4140     0.0000     0.0000 ca         1 18N      -0.166600
      3 CAG          2.0870     0.0000     1.2130 ca         1 18N      -0.026000
      4 CAC          1.3740     0.0000     2.4060 ca         1 18N      -0.152000
      5 CAE          0.0090    -0.0010     2.4260 ca         1 18N      -0.071000
      6 CAL         -0.7110    -0.0020     1.2180 ca         1 18N      -0.062000
      7 CAF         -2.1170    -0.0070     1.1840 ca         1 18N      -0.071000
      8 CAD         -2.7710    -0.0110    -0.0140 ca         1 18N      -0.152000
      9 CAH         -2.0820    -0.0090    -1.2220 ca         1 18N      -0.026000
     10 CAN         -0.6950    -0.0040    -1.2310 ca         1 18N      -0.166600
     11 CAK          0.0810    -0.0040    -2.4790 c          1 18N       0.721100
     12 OAB         -0.4950    -0.0070    -3.5500 o          1 18N      -0.612000
     13 NAI          1.4280     0.0020    -2.4450 ns         1 18N      -0.564500
     14 CAJ          2.1190     0.0010    -1.2890 c          1 18N       0.721100
     15 OAA          3.3350     0.0010    -1.3130 o          1 18N      -0.612000
     16 HAG          3.1700     0.0010     1.2300 ha         1 18N       0.160000
     17 HAC          1.9150     0.0010     3.3450 ha         1 18N       0.140000
     18 HAE         -0.5190    -0.0010     3.3710 ha         1 18N       0.139000
     19 HAF         -2.6810    -0.0090     2.1090 ha         1 18N       0.139000
     20 HAD         -3.8540    -0.0160    -0.0240 ha         1 18N       0.140000
     21 HAH         -2.6290    -0.0120    -2.1560 ha         1 18N       0.160000
     22 HNAI         1.9320     0.0070    -3.3090 hn         1 18N       0.349500
@<TRIPOS>BOND
     1     2     1 ar  
     2     1     6 ar  
     3     1    10 ar  
     4     3     2 ar  
     5    14     2 1   
     6     3     4 ar  
     7     3    16 1   
     8     4     5 ar  
     9     4    17 1   
    10     5     6 ar  
    11     5    18 1   
    12     6     7 ar  
    13     7     8 ar  
    14     7    19 1   
    15     9     8 ar  
    16     8    20 1   
    17    10     9 ar  
    18     9    21 1   
    19    11    10 1   
    20    13    11 1   
    21    11    12 2   
    22    14    13 1   
    23    13    22 1   
    24    15    14 2   
@<TRIPOS>SUBSTRUCTURE
     1 18N         1 TEMP              0 ****  ****    0 ROOT
