@<TRIPOS>MOLECULE
18N
   22    24     1     0     0
SMALL
bcc


@<TRIPOS>ATOM
      1 CAO         -0.0040     0.0160     0.0130 ca         1 18N       0.019000
      2 CAM          1.4190    -0.0110     0.0080 ca         1 18N      -0.154600
      3 CAG          2.1220    -0.0170     1.1950 ca         1 18N      -0.034000
      4 CAC          1.4290     0.0020     2.4280 ca         1 18N      -0.150000
      5 CAE          0.0540     0.0280     2.4570 ca         1 18N      -0.075000
      6 CAL         -0.6960     0.0350     1.2490 ca         1 18N      -0.063000
      7 CAF         -2.1170     0.0610     1.2420 ca         1 18N      -0.075000
      8 CAD         -2.8120     0.0670     0.0560 ca         1 18N      -0.150000
      9 CAH         -2.1240     0.0480    -1.1800 ca         1 18N      -0.034000
     10 CAN         -0.7450     0.0220    -1.2030 ca         1 18N      -0.154600
     11 CAK         -0.0180     0.0020    -2.4940 c          1 18N       0.721100
     12 OAB         -0.5930     0.0060    -3.5980 o          1 18N      -0.611500
     13 NAI          1.3790    -0.0230    -2.4610 ns         1 18N      -0.589500
     14 CAJ          2.1390    -0.0310    -1.2880 c          1 18N       0.721100
     15 OAA          3.3800    -0.0540    -1.3750 o          1 18N      -0.611500
     16 HAG          3.2250    -0.0370     1.1820 ha         1 18N       0.165000
     17 HAC          2.0090    -0.0030     3.3630 ha         1 18N       0.145000
     18 HAE         -0.4890     0.0430     3.4150 ha         1 18N       0.141000
     19 HAF         -2.6490     0.0760     2.2060 ha         1 18N       0.141000
     20 HAD         -3.9120     0.0880     0.0500 ha         1 18N       0.145000
     21 HAH         -2.6900     0.0530    -2.1270 ha         1 18N       0.165000
     22 HNAI         1.8670    -0.0370    -3.3330 hn         1 18N       0.342500
@<TRIPOS>BOND
     1     1     2 ar  
     2     1     6 ar  
     3     1    10 ar  
     4     2     3 ar  
     5     2    14 1   
     6     3     4 ar  
     7     3    16 1   
     8     4     5 ar  
     9     4    17 1   
    10     5     6 ar  
    11     5    18 1   
    12     6     7 ar  
    13     7     8 ar  
    14     7    19 1   
    15     8     9 ar  
    16     8    20 1   
    17     9    10 ar  
    18     9    21 1   
    19    10    11 1   
    20    11    12 2   
    21    11    13 1   
    22    13    14 1   
    23    13    22 1   
    24    14    15 2   
@<TRIPOS>SUBSTRUCTURE
     1 18N         1 TEMP              0 ****  ****    0 ROOT
