@<TRIPOS>MOLECULE
molecule
   44    45     1     0     0
SMALL
bcc


@<TRIPOS>ATOM
      1 C1           0.0000     0.0000     0.0000 c3         1 18O       0.308500
      2 N1          -0.4890     0.0590    -1.3800 ns         1 18O      -0.484900
      3 S1          -2.4760    -1.4960    -0.5480 s          1 18O      -0.652400
      4 C2           1.5310     0.0000     0.0000 c3         1 18O       0.096100
      5 N2          -2.0640    -0.5420    -2.9930 ns         1 18O      -0.293900
      6 O2           2.0090    -1.1670    -0.6720 oh         1 18O      -0.589800
      7 C3           2.0340     0.0000     1.4470 c3         1 18O       0.114100
      8 N3          -1.3610     0.1940    -3.9550 n2         1 18O      -0.475300
      9 O3           3.4610     0.0750     1.4570 oh         1 18O      -0.606800
     10 C4           1.4530     1.2140     2.1780 c3         1 18O       0.099100
     11 N4           1.0820     3.2550    -9.1070 no         1 18O       0.291200
     12 O4           1.8570     1.1850     3.5490 oh         1 18O      -0.598800
     13 C5          -0.0750     1.1680     2.0940 c3         1 18O       0.155100
     14 O5          -0.4740     1.1390     0.7220 os         1 18O      -0.411600
     15 C6          -0.6610     2.4080     2.7700 c3         1 18O       0.152400
     16 O6          -2.0870     2.3080     2.7950 oh         1 18O      -0.591800
     17 C7          -1.6150    -0.5960    -1.7230 cs         1 18O       0.644400
     18 O7           2.1030     3.8420    -8.7980 o          1 18O      -0.200500
     19 C8          -1.7940     0.2450    -5.1770 ce         1 18O       0.407800
     20 O8           0.6730     3.3070   -10.2540 o          1 18O      -0.200500
     21 C9          -1.0520     1.0200    -6.1900 ca         1 18O      -0.090900
     22 C10          0.1190     1.6950    -5.8390 ca         1 18O      -0.109000
     23 C11          0.8070     2.4180    -6.7910 ca         1 18O      -0.072500
     24 C12          0.3390     2.4760    -8.0920 ca         1 18O      -0.144200
     25 C13         -0.8210     1.8100    -8.4470 ca         1 18O      -0.072500
     26 C14         -1.5160     1.0780    -7.5070 ca         1 18O      -0.109000
     27 H1          -0.3590    -0.9040     0.4770 h2         1 18O       0.122700
     28 HN1          0.0030     0.6010    -2.0630 hn         1 18O       0.332500
     29 H2           1.8910     0.8880    -0.5060 h1         1 18O       0.049700
     30 HN2         -2.9020    -1.0270    -3.2480 hn         1 18O       0.354500
     31 HO2          2.7150    -0.9290    -1.2510 ho         1 18O       0.413000
     32 H3           1.7100    -0.9080     1.9410 h1         1 18O       0.069700
     33 HO3          3.8110    -0.6620     1.9310 ho         1 18O       0.418000
     34 H4           1.8120     2.1220     1.7100 h1         1 18O       0.053700
     35 HO4          2.5590     1.8000     3.6830 ho         1 18O       0.414000
     36 H5          -0.4350     0.2760     2.5920 h1         1 18O       0.075700
     37 H6          -0.3710     3.2920     2.2160 h1         1 18O       0.035700
     38 H6A         -0.2860     2.4780     3.7840 h1         1 18O       0.035700
     39 HO6         -2.4370     2.9550     3.3860 ho         1 18O       0.402000
     40 H8          -2.6990    -0.2820    -5.4540 h4         1 18O       0.004800
     41 H10          0.4860     1.6500    -4.8200 ha         1 18O       0.156000
     42 H11          1.7150     2.9420    -6.5200 ha         1 18O       0.171000
     43 H13         -1.1780     1.8560    -9.4690 ha         1 18O       0.171000
     44 H14         -2.4230     0.5570    -7.7860 ha         1 18O       0.156000
@<TRIPOS>BOND
     1     1    14 1
     2     1     2 1
     3     2    17 1
     4     4     1 1
     5     5     8 1
     6     6     4 1
     7     7     4 1
     8     7    10 1
     9     8    19 2
    10     9     7 1
    11    10    13 1
    12    20    11 1
    13    11    18 1
    14    12    10 1
    15    13    15 1
    16    13    14 1
    17    16    15 1
    18    17     3 2
    19    17     5 1
    20    19    21 1
    21    21    26 ar
    22    21    22 ar
    23    22    23 ar
    24    23    24 ar
    25    24    11 1
    26    25    24 ar
    27    26    25 ar
    28     1    27 1
    29     2    28 1
    30     4    29 1
    31     5    30 1
    32     6    31 1
    33     7    32 1
    34     9    33 1
    35    10    34 1
    36    12    35 1
    37    13    36 1
    38    15    37 1
    39    15    38 1
    40    16    39 1
    41    19    40 1
    42    22    41 1
    43    23    42 1
    44    25    43 1
    45    26    44 1
@<TRIPOS>SUBSTRUCTURE
     1 18O         1 TEMP              0 ****  ****    0 ROOT
