@<TRIPOS>MOLECULE
18O
   44    46     1     0     0
SMALL
bcc


@<TRIPOS>ATOM
      1 C1           0.0000     0.0000     0.0000 c3         1 18O       0.024000
      2 N1          -0.4890     0.0590    -1.3800 ns         1 18O       0.186000
      3 S1          -2.4760    -1.4960    -0.5480 s          1 18O      -0.359000
      4 C2           1.5310     0.0000     0.0000 c3         1 18O       0.022000
      5 N2          -2.0640    -0.5420    -2.9930 ns         1 18O       0.216000
      6 O2           2.0090    -1.1670    -0.6720 oh         1 18O      -0.299000
      7 C3           2.0340     0.0000     1.4470 c3         1 18O       0.040000
      8 N3          -1.3610     0.1940    -3.9550 n2         1 18O      -0.059000
      9 O3           3.4610     0.0750     1.4570 oh         1 18O      -0.316000
     10 C4           1.4530     1.2140     2.1780 c3         1 18O       0.026000
     11 N4           1.0820     3.2550    -9.1070 no         1 18O       1.559400
     12 O4           1.8570     1.1850     3.5490 oh         1 18O      -0.304000
     13 C5          -0.0750     1.1680     2.0940 c3         1 18O       0.063000
     14 O5          -0.4740     1.1390     0.7220 os         1 18O      -0.248000
     15 C6          -0.6610     2.4080     2.7700 c3         1 18O       0.074000
     16 O6          -2.0870     2.3080     2.7950 oh         1 18O      -0.302000
     17 C7          -1.6150    -0.5960    -1.7230 c2         1 18O      -0.136000
     18 O7           2.1030     3.8420    -8.7980 o          1 18O      -0.723700
     19 C8          -1.7940     0.2450    -5.1770 c2         1 18O      -0.404000
     20 O8           0.6730     3.3070   -10.2540 o          1 18O      -0.723700
     21 C9          -1.0520     1.0200    -6.1900 c3         1 18O      -0.083000
     22 C10          0.1190     1.6950    -5.8390 c2         1 18O      -0.082500
     23 C11          0.8070     2.4180    -6.7910 c2         1 18O      -0.022500
     24 C12          0.3390     2.4760    -8.0920 c2         1 18O      -0.378000
     25 C13         -0.8210     1.8100    -8.4470 c2         1 18O      -0.022500
     26 C14         -1.5160     1.0780    -7.5070 c2         1 18O      -0.082500
     27 H1          -0.3590    -0.9040     0.4770 h2         1 18O       0.143000
     28 HN1         -0.0140     0.6240    -2.0550 hn         1 18O       0.084000
     29 H2           1.8910     0.8880    -0.5060 h1         1 18O       0.055000
     30 HN2         -2.8940    -1.0390    -3.2510 hn         1 18O       0.128000
     31 HO2          2.7150    -0.9290    -1.2510 ho         1 18O       0.199000
     32 H3           1.7100    -0.9080     1.9410 h1         1 18O       0.074000
     33 HO3          3.8110    -0.6620     1.9310 ho         1 18O       0.205000
     34 H4           1.8120     2.1220     1.7100 h1         1 18O       0.059000
     35 HO4          2.5590     1.8000     3.6830 ho         1 18O       0.199000
     36 H5          -0.4350     0.2760     2.5920 h1         1 18O       0.083000
     37 H6          -0.3710     3.2920     2.2160 h1         1 18O       0.036500
     38 H6A         -0.2860     2.4780     3.7840 h1         1 18O       0.036500
     39 HO6         -2.4410     3.0040     3.3240 ho         1 18O       0.187000
     40 H8          -1.8350     1.3230    -5.2730 DU         1 18O       0.308000
     41 H10          0.4860     1.6500    -4.8200 ha         1 18O       0.131500
     42 H11          1.7150     2.9420    -6.5200 ha         1 18O       0.138500
     43 H13         -1.1780     1.8560    -9.4690 ha         1 18O       0.138500
     44 H14         -2.4230     0.5570    -7.7860 ha         1 18O       0.131500
@<TRIPOS>BOND
     1     1     2 1   
     2     1     4 1   
     3     1    14 1   
     4     1    27 1   
     5     2    17 1   
     6     2    28 1   
     7     3    17 1   
     8     4     6 1   
     9     4     7 1   
    10     4    29 1   
    11     5     8 1   
    12     5    17 1   
    13     5    30 1   
    14     6    31 1   
    15     7     9 1   
    16     7    10 1   
    17     7    32 1   
    18     8    19 1   
    19     9    33 1   
    20    10    12 1   
    21    10    13 1   
    22    10    34 1   
    23    11    18 2   
    24    11    20 2   
    25    11    24 1   
    26    12    35 1   
    27    13    14 1   
    28    13    15 1   
    29    13    36 1   
    30    15    16 1   
    31    15    37 1   
    32    15    38 1   
    33    16    39 1   
    34    19    21 1   
    35    19    40 1   
    36    21    22 1   
    37    21    26 1   
    38    21    40 1   
    39    22    23 1   
    40    22    41 1   
    41    23    24 1   
    42    23    42 1   
    43    24    25 1   
    44    25    26 1   
    45    25    43 1   
    46    26    44 1   
@<TRIPOS>SUBSTRUCTURE
     1 18O         1 TEMP              0 ****  ****    0 ROOT
