@<TRIPOS>MOLECULE
molecule
   45    47     1     0     0
SMALL
bcc


@<TRIPOS>ATOM
      1 C            0.0000     0.0000     0.0000 ca         1 18P       0.422200
      2 N            1.3140     0.0000     0.0000 nb         1 18P      -0.678000
      3 O            4.1340    -0.0000     2.1110 o          1 18P      -0.577100
      4 Cl          -2.4490     0.0020     1.1750 cl         1 18P      -0.068400
      5 N01         10.0820     2.6620    -1.4440 n          1 18P      -0.487800
      6 C02          9.1440     3.7740    -1.3510 c3         1 18P       0.045700
      7 C03          7.9750     3.5760    -2.2660 c2         1 18P       0.386200
      8 N03          7.6330     2.4370    -2.7400 n2         1 18P      -0.522900
      9 C04          8.3400     1.1990    -2.4460 c3         1 18P       0.098500
     10 N04          4.1250    -0.0010    -0.1080 ns         1 18P      -0.507100
     11 C05          8.1420     0.7620    -3.8980 c3         1 18P      -0.066100
     12 C06          9.7300     1.4730    -1.9500 c          1 18P       0.687500
     13 C07          7.5850     0.0000    -1.4120 ca         1 18P      -0.025300
     14 C08          8.1590    -1.1390    -0.8790 ca         1 18P      -0.113000
     15 C09          7.4200    -1.9690    -0.0540 ca         1 18P      -0.087000
     16 C10          6.1060    -1.6620     0.2390 ca         1 18P      -0.101000
     17 C11          5.5260    -0.5180    -0.2960 ca         1 18P       0.100600
     18 C12          6.2720     0.3150    -1.1180 ca         1 18P      -0.178000
     19 C13          3.4910    -0.0000     1.0800 c          1 18P       0.582600
     20 C14          2.0110     0.0000     1.1310 ca         1 18P       0.350800
     21 C15          1.3610     0.0010     2.3640 ca         1 18P      -0.173300
     22 C16         -0.0240     0.0010     2.3950 ca         1 18P      -0.095000
     23 C17         -0.7130     0.0010     1.1910 ca         1 18P      -0.072900
     24 H           -0.5340    -0.0000    -0.9420 h4         1 18P       0.043100
     25 H01         11.5530     3.8360    -0.5310 h1         1 18P       0.062367
     26 H01A        11.6950     2.0970    -0.2370 h1         1 18P       0.062367
     27 H01B        12.1380     2.7670    -1.8130 h1         1 18P       0.062367
     28 H02          9.6550     4.6900    -1.6220 h1         1 18P       0.074700
     29 H02A         8.7860     3.8500    -0.3310 h1         1 18P       0.074700
     30 HN02         7.8150     5.3340    -3.0890 hn         1 18P       0.468467
     31 HN0A         6.4860     4.3920    -3.2220 hn         1 18P       0.468467
     32 HN04         3.6610     0.4690    -0.8610 hn         1 18P       0.339500
     33 H05          8.7310     1.3950    -4.5500 hc         1 18P       0.068367
     34 H05A         7.0950     0.8480    -4.1620 hc         1 18P       0.068367
     35 H05B         8.4590    -0.2680    -4.0120 hc         1 18P       0.068367
     36 H08          9.1960    -1.3710    -1.0900 ha         1 18P       0.165000
     37 H09          7.8730    -2.8610     0.3620 ha         1 18P       0.162000
     38 H10          5.5280    -2.3120     0.8840 ha         1 18P       0.164000
     39 H12          5.8150     1.1940    -1.5570 ha         1 18P       0.124000
     40 H15          1.9320     0.0010     3.2850 ha         1 18P       0.173000
     41 H16         -0.5570     0.0010     3.3390 ha         1 18P       0.166000
     42 O01         10.5580     0.5880    -2.0020 o          1 18P      -0.572500
     43 N02          7.2320     4.6730    -2.6150 nz         1 18P      -0.738600
     44 H023         6.8660     5.1050    -1.7900 hn         1 18P       0.468467
     45 C01         11.4560     2.8530    -0.9760 c3         1 18P       0.103300
@<TRIPOS>BOND
     1     1     2 ar
     2     1    23 ar
     3     2    20 ar
     4     3    19 2
     5     4    23 1
     6    45     5 1
     7     5     6 1
     8     5    12 1
     9    42    12 2
    10     6     7 1
    11    43     7 1
    12     7     8 2
    13     8     9 1
    14     9    11 1
    15     9    12 1
    16     9    13 1
    17    10    17 1
    18    10    19 1
    19    13    14 ar
    20    13    18 ar
    21    14    15 ar
    22    15    16 ar
    23    16    17 ar
    24    17    18 ar
    25    19    20 1
    26    20    21 ar
    27    21    22 ar
    28    22    23 ar
    29     1    24 1
    30    45    25 1
    31    45    26 1
    32    45    27 1
    33     6    28 1
    34     6    29 1
    35    43    30 1
    36    43    31 1
    37    10    32 1
    38    11    33 1
    39    11    34 1
    40    11    35 1
    41    14    36 1
    42    15    37 1
    43    16    38 1
    44    18    39 1
    45    21    40 1
    46    22    41 1
    47    44    43 1
@<TRIPOS>SUBSTRUCTURE
     1 18P         1 TEMP              0 ****  ****    0 ROOT
