@<TRIPOS>MOLECULE
18P
   45    47     1     0     0
SMALL
bcc


@<TRIPOS>ATOM
      1 C            0.0000     0.0000     0.0000 ca         1 18P       0.398200
      2 N            1.3140     0.0000     0.0000 nb         1 18P      -0.566000
      3 O            4.1340    -0.0000     2.1110 o          1 18P      -0.620100
      4 Cl          -2.4490     0.0020     1.1750 cl         1 18P       0.027600
      5 N01         10.0820     2.6620    -1.4440 n          1 18P      -0.154800
      6 C02          9.1440     3.7740    -1.3510 c3         1 18P       0.033700
      7 C03          7.9750     3.5760    -2.2660 c2         1 18P       0.084200
      8 N03          7.6330     2.4370    -2.7400 n2         1 18P      -0.346900
      9 C04          8.3400     1.1990    -2.4460 c3         1 18P       0.067500
     10 N04          4.1250    -0.0010    -0.1080 ns         1 18P      -0.095100
     11 C05          8.1420     0.7620    -3.8980 c3         1 18P       0.010900
     12 C06          9.7300     1.4730    -1.9500 c          1 18P       0.605500
     13 C07          7.5850     0.0000    -1.4120 ca         1 18P      -0.021300
     14 C08          8.1590    -1.1390    -0.8790 ca         1 18P      -0.085000
     15 C09          7.4200    -1.9690    -0.0540 ca         1 18P      -0.055000
     16 C10          6.1060    -1.6620     0.2390 ca         1 18P      -0.060000
     17 C11          5.5260    -0.5180    -0.2960 ca         1 18P      -0.025400
     18 C12          6.2720     0.3150    -1.1180 ca         1 18P      -0.176000
     19 C13          3.4910    -0.0000     1.0800 c          1 18P       0.492600
     20 C14          2.0110     0.0000     1.1310 ca         1 18P       0.290800
     21 C15          1.3610     0.0010     2.3640 ca         1 18P      -0.132300
     22 C16         -0.0240     0.0010     2.3950 ca         1 18P      -0.075000
     23 C17         -0.7130     0.0010     1.1910 ca         1 18P      -0.140900
     24 H           -0.5340    -0.0000    -0.9420 h4         1 18P      -0.004900
     25 H01         11.5530     3.8360    -0.5310 h1         1 18P       0.027033
     26 H01A        11.6950     2.0970    -0.2370 h1         1 18P       0.027033
     27 H01B        12.1380     2.7670    -1.8130 h1         1 18P       0.027033
     28 H02          9.6550     4.6900    -1.6220 h1         1 18P       0.040200
     29 H02A         8.7860     3.8500    -0.3310 h1         1 18P       0.040200
     30 HN02         7.8150     5.3340    -3.0890 hn         1 18P       0.217800
     31 HN0A         6.4860     4.3920    -3.2220 hn         1 18P       0.217800
     32 HN04         3.6610     0.4690    -0.8610 hn         1 18P       0.187500
     33 H05          8.7310     1.3950    -4.5500 hc         1 18P       0.031700
     34 H05A         7.0950     0.8480    -4.1620 hc         1 18P       0.031700
     35 H05B         8.4590    -0.2680    -4.0120 hc         1 18P       0.031700
     36 H08          9.1960    -1.3710    -1.0900 ha         1 18P       0.136000
     37 H09          7.8730    -2.8610     0.3620 ha         1 18P       0.124000
     38 H10          5.5280    -2.3120     0.8840 ha         1 18P       0.129000
     39 H12          5.8150     1.1940    -1.5570 ha         1 18P       0.100000
     40 H15          1.9320     0.0010     3.2850 ha         1 18P       0.141000
     41 H16         -0.5570     0.0010     3.3390 ha         1 18P       0.130000
     42 O01         10.5580     0.5880    -2.0020 o          1 18P      -0.603500
     43 N02          7.2320     4.6730    -2.6150 nz         1 18P       0.196400
     44 H023         6.8660     5.1050    -1.7900 hn         1 18P       0.217800
     45 C01         11.4560     2.8530    -0.9760 c3         1 18P       0.097300
@<TRIPOS>BOND
     1     1     2 ar  
     2     1    23 ar  
     3     1    24 1   
     4     2    20 ar  
     5     3    19 2   
     6     4    23 1   
     7     5     6 1   
     8     5    12 1   
     9     5    45 1   
    10     6     7 1   
    11     6    28 1   
    12     6    29 1   
    13     7     8 2   
    14     7    43 1   
    15     8     9 1   
    16     9    11 1   
    17     9    12 1   
    18     9    13 1   
    19    10    17 1   
    20    10    19 1   
    21    10    32 1   
    22    11    33 1   
    23    11    34 1   
    24    11    35 1   
    25    12    42 2   
    26    13    14 ar  
    27    13    18 ar  
    28    14    15 ar  
    29    14    36 1   
    30    15    16 ar  
    31    15    37 1   
    32    16    17 ar  
    33    16    38 1   
    34    17    18 ar  
    35    18    39 1   
    36    19    20 1   
    37    20    21 ar  
    38    21    22 ar  
    39    21    40 1   
    40    22    23 ar  
    41    22    41 1   
    42    25    45 1   
    43    26    45 1   
    44    27    45 1   
    45    30    43 1   
    46    31    43 1   
    47    43    44 1   
@<TRIPOS>SUBSTRUCTURE
     1 18P         1 TEMP              0 ****  ****    0 ROOT
