@<TRIPOS>MOLECULE
18P
   45    47     1     0     0
SMALL
bcc


@<TRIPOS>ATOM
      1 C            0.4180    -1.2310     0.0540 ca         1 18P       0.402200
      2 N            1.4030    -1.0630     0.9440 nb         1 18P      -0.657000
      3 O            2.8510     1.5420     2.9180 o          1 18P      -0.580100
      4 Cl          -1.5040    -0.4550    -1.6620 cl         1 18P      -0.039400
      5 N01          5.7010    -5.0000     5.0910 n          1 18P      -0.489800
      6 C02          5.2900    -4.6300     6.4160 c3         1 18P       0.044700
      7 C03          6.3740    -3.7860     7.0880 c2         1 18P       0.441200
      8 N03          7.2580    -3.0630     6.4950 n2         1 18P      -0.500900
      9 C04          7.2570    -2.9820     5.0270 c3         1 18P       0.142500
     10 N04          3.7810    -0.5280     2.4790 ns         1 18P      -0.460100
     11 C05          8.7110    -2.9700     4.5140 c3         1 18P      -0.080100
     12 C06          6.5640    -4.2000     4.3430 c          1 18P       0.677500
     13 C07          6.5720    -1.6880     4.6160 ca         1 18P      -0.098300
     14 C08          7.0740    -0.4800     5.1120 ca         1 18P      -0.141000
     15 C09          6.4650     0.7180     4.7460 ca         1 18P      -0.101000
     16 C10          5.3690     0.7350     3.8900 ca         1 18P      -0.126000
     17 C11          4.8580    -0.4760     3.3730 ca         1 18P       0.087600
     18 C12          5.4760    -1.6940     3.7550 ca         1 18P      -0.170000
     19 C13          2.8260     0.4650     2.2960 c          1 18P       0.585600
     20 C14          1.7410     0.2090     1.2810 ca         1 18P       0.336800
     21 C15          1.1000     1.3410     0.7400 ca         1 18P      -0.168300
     22 C16          0.0750     1.1530    -0.1920 ca         1 18P      -0.095000
     23 C17         -0.2770    -0.1520    -0.5460 ca         1 18P      -0.077900
     24 O01          6.8190    -4.4830     3.1650 o          1 18P      -0.561500
     25 N02          6.3660    -3.8250     8.5750 nz         1 18P      -0.801600
     26 C01          5.0160    -6.1210     4.4990 c3         1 18P       0.071300
     27 H            0.1660    -2.2780    -0.1990 h4         1 18P       0.045100
     28 H01          5.4040    -6.2920     3.4580 h1         1 18P       0.065700
     29 H01A         5.2000    -7.0420     5.1150 h1         1 18P       0.065700
     30 H01B         3.9120    -5.9230     4.4520 h1         1 18P       0.065700
     31 H02          5.0800    -5.5690     7.0060 h1         1 18P       0.078200
     32 H02A         4.3440    -4.0080     6.3900 h1         1 18P       0.078200
     33 HN02         7.0780    -3.1980     8.9750 hn         1 18P       0.472800
     34 HN0A         6.5550    -4.7870     8.8790 hn         1 18P       0.472800
     35 HN04         3.6610    -1.3910     1.9920 hn         1 18P       0.343500
     36 H05          8.6790    -2.8840     3.3990 hc         1 18P       0.075700
     37 H05A         9.2360    -3.9160     4.7870 hc         1 18P       0.075700
     38 H05B         9.2690    -2.0990     4.9340 hc         1 18P       0.075700
     39 H08          7.9510    -0.4650     5.7760 ha         1 18P       0.141000
     40 H09          6.8610     1.6710     5.1320 ha         1 18P       0.152000
     41 H10          4.9070     1.7010     3.6190 ha         1 18P       0.186000
     42 H12          5.1000    -2.6420     3.3370 ha         1 18P       0.144000
     43 H15          1.4030     2.3500     1.0590 ha         1 18P       0.178000
     44 H16         -0.4420     2.0200    -0.6330 ha         1 18P       0.169000
     45 H023         5.4380    -3.5360     8.9020 hn         1 18P       0.472800
@<TRIPOS>BOND
     1     1     2 ar  
     2     1    23 ar  
     3     1    27 1   
     4     2    20 ar  
     5     3    19 2   
     6     4    23 1   
     7     5     6 1   
     8     5    12 1   
     9     5    26 1   
    10     6     7 1   
    11     6    31 1   
    12     6    32 1   
    13     7     8 2   
    14     7    25 1   
    15     8     9 1   
    16     9    11 1   
    17     9    12 1   
    18     9    13 1   
    19    10    17 1   
    20    10    19 1   
    21    10    35 1   
    22    11    36 1   
    23    11    37 1   
    24    11    38 1   
    25    12    24 2   
    26    13    14 ar  
    27    13    18 ar  
    28    14    15 ar  
    29    14    39 1   
    30    15    16 ar  
    31    15    40 1   
    32    16    17 ar  
    33    16    41 1   
    34    17    18 ar  
    35    18    42 1   
    36    19    20 1   
    37    20    21 ar  
    38    21    22 ar  
    39    21    43 1   
    40    22    23 ar  
    41    22    44 1   
    42    25    33 1   
    43    25    34 1   
    44    25    45 1   
    45    26    28 1   
    46    26    29 1   
    47    26    30 1   
@<TRIPOS>SUBSTRUCTURE
     1 18P         1 TEMP              0 ****  ****    0 ROOT
