@<TRIPOS>MOLECULE
18R
   72    76     1     0     0
SMALL
bcc


@<TRIPOS>ATOM
      1 C1           0.0000     0.0000     0.0000 c          1 18R       0.581700
      2 N1           1.3470     0.0000     0.0000 ns         1 18R      -0.028100
      3 O1          -0.6080     0.0000     1.0530 o          1 18R      -0.639100
      4 N2          -8.5980    -1.6150    -5.7730 n          1 18R      -0.144800
      5 C2          -9.4750    -1.0030    -6.5920 c          1 18R       0.601300
      6 O2         -10.4240    -1.6200    -7.0390 o          1 18R      -0.652100
      7 C3          -7.5680    -1.0920    -3.6230 c3         1 18R      -0.046000
      8 C4          -7.5310    -2.5960    -3.3440 c3         1 18R      -0.043400
      9 C5          -8.7500    -3.2710    -3.9870 c3         1 18R      -0.036400
     10 C6          -8.7060    -3.0560    -5.5030 c3         1 18R       0.047000
     11 C7          -7.5130    -0.8560    -5.1360 c3         1 18R       0.023000
     12 N3          -6.0290     2.4370    -0.1660 nb         1 18R      -0.759000
     13 C8          -7.2530     2.0890    -0.5190 ca         1 18R       0.725900
     14 N4          -7.4960     1.1640    -1.4220 nb         1 18R      -0.716000
     15 C9          -4.9640     1.8600    -0.7170 ca         1 18R       0.617200
     16 N5          -6.4200    -0.4460    -2.9810 na         1 18R       0.381200
     17 N6          -5.0780    -0.7350    -3.2470 nc         1 18R      -0.631100
     18 C10         -4.3030     0.0190    -2.5040 cd         1 18R       0.479500
     19 C11         -5.1730     0.8660    -1.6870 ca         1 18R      -0.565500
     20 C12         -6.4950     0.5280    -2.0310 ca         1 18R       0.359800
     21 C13         -2.8210     0.0140    -2.4920 ca         1 18R      -0.102900
     22 C14         -2.1340     0.0090    -1.2830 ca         1 18R      -0.056000
     23 C15         -0.7400     0.0040    -1.2800 ca         1 18R      -0.157600
     24 C16         -0.0420     0.0040    -2.4910 ca         1 18R      -0.081000
     25 C17         -0.7320     0.0080    -3.6870 ca         1 18R      -0.102000
     26 C18         -2.1130     0.0080    -3.6950 ca         1 18R      -0.050000
     27 C19         -9.2850     0.4110    -6.9490 ce         1 18R      -0.257200
     28 C20        -10.0920     0.9890    -7.8350 c2         1 18R      -0.051000
     29 C21          3.9330     0.8710     2.4630 ca         1 18R      -0.060300
     30 C22          3.2460     0.7860     1.2690 ca         1 18R      -0.129000
     31 C23          3.4290     0.2620     3.5990 ca         1 18R      -0.122000
     32 C24          5.2370     1.6240     2.5290 c3         1 18R      -0.013700
     33 C25          2.0470     0.0880     1.2080 ca         1 18R      -0.097400
     34 C26          2.2370    -0.4340     3.5410 ca         1 18R      -0.079000
     35 C27          5.0050     3.0830     2.1320 c3         1 18R       0.005567
     36 C28          5.7880     1.5660     3.9550 c3         1 18R       0.005567
     37 C29          6.2420     0.9870     1.5680 c3         1 18R       0.005567
     38 C30          1.5430    -0.5230     2.3490 ca         1 18R      -0.106000
     39 H1           1.8470    -0.0950    -0.8620 hn         1 18R       0.171500
     40 H2          -8.4880    -0.6770    -3.2280 h1         1 18R       0.069700
     41 H3          -7.5510    -2.7630    -2.2730 hc         1 18R       0.032200
     42 H4          -6.6250    -3.0170    -3.7620 hc         1 18R       0.032200
     43 H5          -9.6570    -2.8340    -3.5870 hc         1 18R       0.026200
     44 H6          -8.7290    -4.3330    -3.7730 hc         1 18R       0.026200
     45 H7          -9.6140    -3.4410    -5.9500 h1         1 18R       0.037700
     46 H8          -7.8450    -3.5670    -5.9170 h1         1 18R       0.037700
     47 H9          -7.6400     0.2000    -5.3430 h1         1 18R       0.040200
     48 H10         -6.5590    -1.1950    -5.5210 h1         1 18R       0.040200
     49 H11         -8.0920     2.5840    -0.0450 h5         1 18R      -0.004900
     50 H12         -3.5540     2.9360     0.3510 hn         1 18R       0.289300
     51 H13         -2.8950     1.8140    -0.7950 hn         1 18R       0.289300
     52 H14         -2.6770    -0.1060    -0.3520 ha         1 18R       0.144000
     53 H15          1.0410     0.0040    -2.4910 ha         1 18R       0.103000
     54 H16         -0.1870     0.0070    -4.6230 ha         1 18R       0.110000
     55 H17         -2.6480     0.0120    -4.6370 ha         1 18R       0.118000
     56 H18         -8.4880     0.9830    -6.4910 ha         1 18R       0.114000
     57 H19        -10.8900     0.4180    -8.2940 ha         1 18R       0.091500
     58 H20         -9.9510     2.0300    -8.0970 ha         1 18R       0.091500
     59 H21          3.6410     1.2640     0.3810 ha         1 18R       0.111000
     60 H22          3.9710     0.3300     4.5350 ha         1 18R       0.120000
     61 H23          1.8450    -0.9100     4.4310 ha         1 18R       0.105000
     62 H24          4.1560     3.4750     2.6780 hc         1 18R       0.007367
     63 H25          5.8870     3.6660     2.3670 hc         1 18R       0.007367
     64 H26          4.8080     3.1400     1.0680 hc         1 18R       0.007367
     65 H27          5.0760     2.0160     4.6360 hc         1 18R       0.007367
     66 H28          6.7250     2.1080     4.0030 hc         1 18R       0.007367
     67 H29          5.9540     0.5330     4.2370 hc         1 18R       0.007367
     68 H30          5.9520     1.2020     0.5470 hc         1 18R       0.007367
     69 H31          6.2580    -0.0860     1.7200 hc         1 18R       0.007367
     70 H32          7.2290     1.3920     1.7560 hc         1 18R       0.007367
     71 H33          0.6080    -1.0690     2.3040 ha         1 18R       0.145000
     72 N7          -3.6870     2.2280    -0.3440 nv         1 18R      -0.512500
@<TRIPOS>BOND
     1     1     2 1   
     2     1     3 2   
     3     1    23 1   
     4     2    33 1   
     5     2    39 1   
     6     4     5 1   
     7     4    10 1   
     8     4    11 1   
     9     5     6 2   
    10     5    27 1   
    11     7     8 1   
    12     7    11 1   
    13     7    16 1   
    14     7    40 1   
    15     8     9 1   
    16     8    41 1   
    17     8    42 1   
    18     9    10 1   
    19     9    43 1   
    20     9    44 1   
    21    10    45 1   
    22    10    46 1   
    23    11    47 1   
    24    11    48 1   
    25    12    13 ar  
    26    12    15 ar  
    27    13    14 ar  
    28    13    49 1   
    29    14    20 ar  
    30    15    19 ar  
    31    15    72 1   
    32    16    17 1   
    33    16    20 1   
    34    17    18 2   
    35    18    19 1   
    36    18    21 1   
    37    19    20 ar  
    38    21    22 ar  
    39    21    26 ar  
    40    22    23 ar  
    41    22    52 1   
    42    23    24 ar  
    43    24    25 ar  
    44    24    53 1   
    45    25    26 ar  
    46    25    54 1   
    47    26    55 1   
    48    27    28 2   
    49    27    56 1   
    50    28    57 1   
    51    28    58 1   
    52    29    30 ar  
    53    29    31 ar  
    54    29    32 1   
    55    30    33 ar  
    56    30    59 1   
    57    31    34 ar  
    58    31    60 1   
    59    32    35 1   
    60    32    36 1   
    61    32    37 1   
    62    33    38 ar  
    63    34    38 ar  
    64    34    61 1   
    65    35    62 1   
    66    35    63 1   
    67    35    64 1   
    68    36    65 1   
    69    36    66 1   
    70    36    67 1   
    71    37    68 1   
    72    37    69 1   
    73    37    70 1   
    74    38    71 1   
    75    50    72 1   
    76    51    72 1   
@<TRIPOS>SUBSTRUCTURE
     1 18R         1 TEMP              0 ****  ****    0 ROOT
