@<TRIPOS>MOLECULE
18R
   72    76     1     0     0
SMALL
bcc


@<TRIPOS>ATOM
      1 C1          -0.1150     0.3460     0.1660 c          1 18R       0.679700
      2 N1           1.1920    -0.1130     0.2450 ns         1 18R      -0.467100
      3 O1          -0.7690     0.7330     1.1510 o          1 18R      -0.580100
      4 N2          -6.3750    -5.8070    -2.7590 n          1 18R      -0.456800
      5 C2          -7.0690    -6.4320    -3.7980 c          1 18R       0.650300
      6 O2          -6.9650    -6.0180    -4.9690 o          1 18R      -0.587100
      7 C3          -6.3750    -3.3260    -2.4600 c3         1 18R       0.053000
      8 C4          -6.6250    -3.5270    -0.9570 c3         1 18R      -0.096400
      9 C5          -7.4250    -4.7930    -0.7380 c3         1 18R      -0.104400
     10 C6          -6.7360    -6.0030    -1.3730 c3         1 18R       0.080000
     11 C7          -5.6470    -4.5850    -3.0240 c3         1 18R       0.070000
     12 N3          -6.7100     1.6180    -4.2330 nb         1 18R      -0.795000
     13 C8          -7.6170     0.6070    -4.1490 ca         1 18R       0.696900
     14 N4          -7.4700    -0.6580    -3.6980 nb         1 18R      -0.735000
     15 C9          -5.4260     1.3480    -3.8240 ca         1 18R       0.754200
     16 N5          -5.6300    -2.1030    -2.7490 na         1 18R       0.004200
     17 N6          -4.3300    -1.9260    -2.4460 nc         1 18R      -0.501100
     18 C10         -3.9670    -0.6620    -2.7860 cd         1 18R       0.416500
     19 C11         -5.1120     0.0460    -3.3250 ca         1 18R      -0.491500
     20 C12         -6.1930    -0.9250    -3.2810 ca         1 18R       0.477800
     21 C13         -2.6180    -0.1380    -2.6190 ca         1 18R      -0.108900
     22 C14         -2.0130    -0.1480    -1.3560 ca         1 18R      -0.054000
     23 C15         -0.7140     0.3470    -1.2040 ca         1 18R      -0.151600
     24 C16         -0.0190     0.8570    -2.3050 ca         1 18R      -0.100000
     25 C17         -0.6240     0.8620    -3.5610 ca         1 18R      -0.141000
     26 C18         -1.9150     0.3620    -3.7240 ca         1 18R      -0.101000
     27 C19         -7.8850    -7.6410    -3.5020 ce         1 18R      -0.211200
     28 C20         -7.3840    -8.7800    -3.0330 c2         1 18R      -0.174000
     29 C21          4.0370    -1.1170     2.4020 ca         1 18R      -0.039300
     30 C22          3.2000    -0.9620     1.2990 ca         1 18R      -0.180000
     31 C23          3.6550    -0.5580     3.6320 ca         1 18R      -0.155000
     32 C24          5.3410    -1.8680     2.3180 c3         1 18R      -0.010700
     33 C25          1.9780    -0.2500     1.4040 ca         1 18R       0.065600
     34 C26          2.4580     0.1390     3.7430 ca         1 18R      -0.105000
     35 C27          5.3090    -3.0450     3.2900 c3         1 18R      -0.086100
     36 C28          5.6180    -2.4140     0.9230 c3         1 18R      -0.086100
     37 C29          6.4870    -0.9330     2.6970 c3         1 18R      -0.086100
     38 C30          1.6150     0.3030     2.6470 ca         1 18R      -0.156000
     39 H1           1.5940    -0.4750    -0.5920 hn         1 18R       0.318500
     40 H2          -7.3700    -3.2170    -2.9850 h1         1 18R       0.098700
     41 H3          -7.1840    -2.6510    -0.5390 hc         1 18R       0.060200
     42 H4          -5.6460    -3.5990    -0.4150 hc         1 18R       0.060200
     43 H5          -8.4550    -4.6710    -1.1650 hc         1 18R       0.054700
     44 H6          -7.5330    -4.9830     0.3610 hc         1 18R       0.054700
     45 H7          -7.4030    -6.9030    -1.2710 h1         1 18R       0.056700
     46 H8          -5.7820    -6.2100    -0.8050 h1         1 18R       0.056700
     47 H9          -4.6380    -4.6810    -2.5320 h1         1 18R       0.083200
     48 H10         -5.5010    -4.4670    -4.1350 h1         1 18R       0.083200
     49 H11         -8.6390     0.8720    -4.5000 h5         1 18R       0.054100
     50 H12         -4.7020     3.2430    -4.1420 hn         1 18R       0.437300
     51 H13         -3.6040     2.1560    -3.4280 hn         1 18R       0.437300
     52 H14         -2.5570    -0.5360    -0.4790 ha         1 18R       0.166000
     53 H15          0.9960     1.2660    -2.1860 ha         1 18R       0.141000
     54 H16         -0.0780     1.2580    -4.4300 ha         1 18R       0.142000
     55 H17         -2.3830     0.3520    -4.7210 ha         1 18R       0.153000
     56 H18         -8.9450    -7.5260    -3.7840 ha         1 18R       0.153000
     57 H19         -8.0080    -9.6730    -2.8890 ha         1 18R       0.123000
     58 H20         -6.3240    -8.9040    -2.7700 ha         1 18R       0.123000
     59 H21          3.4850    -1.3970     0.3290 ha         1 18R       0.131000
     60 H22          4.3030    -0.6720     4.5130 ha         1 18R       0.133000
     61 H23          2.1660     0.5730     4.7120 ha         1 18R       0.134000
     62 H24          5.1680    -2.6870     4.3380 hc         1 18R       0.037256
     63 H25          4.4710    -3.7360     3.0330 hc         1 18R       0.037256
     64 H26          6.2700    -3.6100     3.2350 hc         1 18R       0.037256
     65 H27          4.8180    -3.1280     0.6130 hc         1 18R       0.037256
     66 H28          6.5930    -2.9590     0.9190 hc         1 18R       0.037256
     67 H29          5.6780    -1.5840     0.1790 hc         1 18R       0.037256
     68 H30          7.4590    -1.4790     2.6360 hc         1 18R       0.037256
     69 H31          6.5210    -0.0620     2.0000 hc         1 18R       0.037256
     70 H32          6.3580    -0.5520     3.7380 hc         1 18R       0.037256
     71 H33          0.6710     0.8590     2.7670 ha         1 18R       0.171000
     72 N7          -4.4420     2.3070    -3.9370 nv         1 18R      -0.950500
@<TRIPOS>BOND
     1     1     2 1   
     2     1     3 2   
     3     1    23 1   
     4     2    33 1   
     5     2    39 1   
     6     4     5 1   
     7     4    10 1   
     8     4    11 1   
     9     5     6 2   
    10     5    27 1   
    11     7     8 1   
    12     7    11 1   
    13     7    16 1   
    14     7    40 1   
    15     8     9 1   
    16     8    41 1   
    17     8    42 1   
    18     9    10 1   
    19     9    43 1   
    20     9    44 1   
    21    10    45 1   
    22    10    46 1   
    23    11    47 1   
    24    11    48 1   
    25    12    13 ar  
    26    12    15 ar  
    27    13    14 ar  
    28    13    49 1   
    29    14    20 ar  
    30    15    19 ar  
    31    15    72 1   
    32    16    17 1   
    33    16    20 1   
    34    17    18 2   
    35    18    19 1   
    36    18    21 1   
    37    19    20 ar  
    38    21    22 ar  
    39    21    26 ar  
    40    22    23 ar  
    41    22    52 1   
    42    23    24 ar  
    43    24    25 ar  
    44    24    53 1   
    45    25    26 ar  
    46    25    54 1   
    47    26    55 1   
    48    27    28 2   
    49    27    56 1   
    50    28    57 1   
    51    28    58 1   
    52    29    30 ar  
    53    29    31 ar  
    54    29    32 1   
    55    30    33 ar  
    56    30    59 1   
    57    31    34 ar  
    58    31    60 1   
    59    32    35 1   
    60    32    36 1   
    61    32    37 1   
    62    33    38 ar  
    63    34    38 ar  
    64    34    61 1   
    65    35    62 1   
    66    35    63 1   
    67    35    64 1   
    68    36    65 1   
    69    36    66 1   
    70    36    67 1   
    71    37    68 1   
    72    37    69 1   
    73    37    70 1   
    74    38    71 1   
    75    50    72 1   
    76    51    72 1   
@<TRIPOS>SUBSTRUCTURE
     1 18R         1 TEMP              0 ****  ****    0 ROOT
