@<TRIPOS>MOLECULE
molecule
   72    76     1     0     0
SMALL
bcc


@<TRIPOS>ATOM
      1 C1           0.0000     0.0000     0.0000 c          1 18R       0.672700
      2 N1           1.3470     0.0000     0.0000 ns         1 18R      -0.472100
      3 O1          -0.6080     0.0000     1.0530 o          1 18R      -0.592100
      4 N2          -8.5980    -1.6150    -5.7730 n          1 18R      -0.488800
      5 C2          -9.4750    -1.0030    -6.5920 c          1 18R       0.670300
      6 O2         -10.4240    -1.6200    -7.0390 o          1 18R      -0.614100
      7 C3          -7.5680    -1.0920    -3.6230 c3         1 18R       0.074000
      8 C4          -7.5310    -2.5960    -3.3440 c3         1 18R      -0.095400
      9 C5          -8.7500    -3.2710    -3.9870 c3         1 18R      -0.099400
     10 C6          -8.7060    -3.0560    -5.5030 c3         1 18R       0.104000
     11 C7          -7.5130    -0.8560    -5.1360 c3         1 18R       0.088000
     12 N3          -6.0290     2.4370    -0.1660 nb         1 18R      -0.848000
     13 C8          -7.2530     2.0890    -0.5190 ca         1 18R       0.766900
     14 N4          -7.4960     1.1640    -1.4220 nb         1 18R      -0.818000
     15 C9          -4.9640     1.8600    -0.7170 ca         1 18R       0.797200
     16 N5          -6.4200    -0.4460    -2.9810 na         1 18R      -0.027800
     17 N6          -5.0780    -0.7350    -3.2470 nc         1 18R      -0.500100
     18 C10         -4.3030     0.0190    -2.5040 cd         1 18R       0.440500
     19 C11         -5.1730     0.8660    -1.6870 ca         1 18R      -0.548500
     20 C12         -6.4950     0.5280    -2.0310 ca         1 18R       0.543800
     21 C13         -2.8210     0.0140    -2.4920 ca         1 18R      -0.100900
     22 C14         -2.1340     0.0090    -1.2830 ca         1 18R      -0.082000
     23 C15         -0.7400     0.0040    -1.2800 ca         1 18R      -0.148600
     24 C16         -0.0420     0.0040    -2.4910 ca         1 18R      -0.100000
     25 C17         -0.7320     0.0080    -3.6870 ca         1 18R      -0.133000
     26 C18         -2.1130     0.0080    -3.6950 ca         1 18R      -0.077000
     27 C19         -9.2850     0.4110    -6.9490 ce         1 18R      -0.255200
     28 C20        -10.0920     0.9890    -7.8350 c2         1 18R      -0.129000
     29 C21          3.9330     0.8710     2.4630 ca         1 18R      -0.055300
     30 C22          3.2460     0.7860     1.2690 ca         1 18R      -0.155000
     31 C23          3.4290     0.2620     3.5990 ca         1 18R      -0.142000
     32 C24          5.2370     1.6240     2.5290 c3         1 18R      -0.023700
     33 C25          2.0470     0.0880     1.2080 ca         1 18R       0.049600
     34 C26          2.2370    -0.4340     3.5410 ca         1 18R      -0.112000
     35 C27          5.0050     3.0830     2.1320 c3         1 18R      -0.080767
     36 C28          5.7880     1.5660     3.9550 c3         1 18R      -0.080767
     37 C29          6.2420     0.9870     1.5680 c3         1 18R      -0.080767
     38 C30          1.5430    -0.5230     2.3490 ca         1 18R      -0.129000
     39 H1           1.8470    -0.0960    -0.8620 hn         1 18R       0.324500
     40 H2          -8.4880    -0.6770    -3.2280 h1         1 18R       0.099700
     41 H3          -6.6250    -3.0170    -3.7620 hc         1 18R       0.060200
     42 H4          -7.5510    -2.7630    -2.2730 hc         1 18R       0.060200
     43 H5          -8.7290    -4.3330    -3.7730 hc         1 18R       0.056700
     44 H6          -9.6570    -2.8340    -3.5870 hc         1 18R       0.056700
     45 H7          -7.8450    -3.5670    -5.9170 h1         1 18R       0.065200
     46 H8          -9.6140    -3.4410    -5.9500 h1         1 18R       0.065200
     47 H9          -7.6400     0.2000    -5.3430 h1         1 18R       0.064700
     48 H10         -6.5590    -1.1950    -5.5210 h1         1 18R       0.064700
     49 H11         -8.0920     2.5840    -0.0450 h5         1 18R       0.062100
     50 H12         -3.5540     2.9330     0.3540 hn         1 18R       0.451800
     51 H13         -2.8950     1.8150    -0.7960 hn         1 18R       0.451800
     52 H14         -2.6760    -0.1070    -0.3520 ha         1 18R       0.175000
     53 H15          1.0410     0.0040    -2.4910 ha         1 18R       0.129000
     54 H16         -0.1870     0.0070    -4.6230 ha         1 18R       0.141000
     55 H17         -2.6480     0.0120    -4.6370 ha         1 18R       0.150000
     56 H18         -8.4880     0.9830    -6.4910 ha         1 18R       0.130000
     57 H19         -9.9510     2.0300    -8.0970 ha         1 18R       0.129500
     58 H20        -10.8900     0.4180    -8.2940 ha         1 18R       0.129500
     59 H21          3.6410     1.2640     0.3810 ha         1 18R       0.130000
     60 H22          3.9710     0.3300     4.5350 ha         1 18R       0.137000
     61 H23          1.8450    -0.9100     4.4310 ha         1 18R       0.134000
     62 H24          4.8000     3.1390     1.0700 hc         1 18R       0.037033
     63 H25          4.1610     3.4780     2.6840 hc         1 18R       0.037033
     64 H26          5.8900     3.6640     2.3600 hc         1 18R       0.037033
     65 H27          5.9570     0.5340     4.2350 hc         1 18R       0.037033
     66 H28          5.0740     2.0130     4.6370 hc         1 18R       0.037033
     67 H29          6.7230     2.1120     4.0040 hc         1 18R       0.037033
     68 H30          6.2220    -0.0900     1.6860 hc         1 18R       0.037033
     69 H31          7.2370     1.3550     1.7890 hc         1 18R       0.037033
     70 H32          5.9800     1.2430     0.5490 hc         1 18R       0.037033
     71 H33          0.6080    -1.0690     2.3040 ha         1 18R       0.164000
     72 N7          -3.6870     2.2280    -0.3440 nv         1 18R      -0.988500
@<TRIPOS>BOND
     1    37    32 1   
     2    36    32 1   
     3    32    35 1   
     4    32    29 1   
     5    29    30 ar  
     6    29    31 ar  
     7    30    33 ar  
     8    31    34 ar  
     9    33     2 1   
    10    33    38 ar  
    11    34    38 ar  
    12     2     1 1   
    13    24    25 ar  
    14    24    23 ar  
    15     1    23 1   
    16     1     3 2   
    17    25    26 ar  
    18    23    22 ar  
    19    26    21 ar  
    20    22    21 ar  
    21    21    18 1   
    22    18    17 2   
    23    18    19 1   
    24    28    27 2   
    25    17    16 1   
    26    11     4 1   
    27    11     7 1   
    28    10     4 1   
    29    10     9 1   
    30     4     5 1   
    31    19    15 ar  
    32    19    20 ar  
    33    27     5 1   
    34    72    15 1   
    35     5     6 2   
    36    16     7 1   
    37    16    20 1   
    38     8     7 1   
    39     8     9 1   
    40    15    12 ar  
    41    20    14 ar  
    42    12    13 ar  
    43    14    13 ar  
    44     2    39 1   
    45     7    40 1   
    46     8    41 1   
    47     8    42 1   
    48     9    43 1   
    49     9    44 1   
    50    10    45 1   
    51    10    46 1   
    52    11    47 1   
    53    11    48 1   
    54    13    49 1   
    55    72    50 1   
    56    72    51 1   
    57    22    52 1   
    58    24    53 1   
    59    25    54 1   
    60    26    55 1   
    61    27    56 1   
    62    28    57 1   
    63    28    58 1   
    64    30    59 1   
    65    31    60 1   
    66    34    61 1   
    67    35    62 1   
    68    35    63 1   
    69    35    64 1   
    70    36    65 1   
    71    36    66 1   
    72    36    67 1   
    73    37    68 1   
    74    37    69 1   
    75    37    70 1   
    76    38    71 1   
@<TRIPOS>SUBSTRUCTURE
     1 18R         1 TEMP              0 ****  ****    0 ROOT
