@<TRIPOS>MOLECULE
18S
   47    48     1     0     0
SMALL
bcc


@<TRIPOS>ATOM
      1 C1           0.3000     0.0190     0.0300 c3         1 18S       0.338300
      2 N1          -0.0350     0.1080    -1.4570 ny         1 18S      -0.601800
      3 S1          -2.5700    -0.5410    -0.8320 s          1 18S       0.289600
      4 C2           1.8290    -0.1890     0.2100 c3         1 18S       0.113100
      5 N2          -1.6760    -0.2840    -3.3020 ny         1 18S      -0.301900
      6 O2           2.1280    -1.4170    -0.4150 oh         1 18S      -0.634800
      7 C3           2.1040    -0.1890     1.7250 c3         1 18S       0.085100
      8 N3          -1.0990     0.7810    -4.0020 n2         1 18S      -0.673400
      9 O3           3.5040    -0.3200     1.8430 oh         1 18S      -0.586800
     10 C4           1.5940     1.1280     2.3400 c3         1 18S       0.073100
     11 O4           1.8220     1.1430     3.7280 oh         1 18S      -0.551800
     12 C5           0.1080     1.3280     2.0050 c3         1 18S       0.114100
     13 O5          -0.0880     1.2670     0.5710 os         1 18S      -0.427600
     14 C6          -0.3840     2.7220     2.4080 c3         1 18S       0.136400
     15 O6          -1.7960     2.6870     2.3290 oh         1 18S      -0.613800
     16 C7          -1.4390    -0.2450    -1.7830 cs         1 18S       0.003400
     17 C8          -1.8490     1.5700    -4.7600 ce         1 18S       0.609800
     18 C9          -1.3120     2.6330    -5.5570 ca         1 18S      -0.262900
     19 C10          0.0710     2.9010    -5.6680 ca         1 18S      -0.029000
     20 C11          0.5220     3.9330    -6.4740 ca         1 18S      -0.154500
     21 C12         -0.3840     4.7310    -7.1950 ca         1 18S       0.065700
     22 C13         -1.7630     4.4670    -7.0870 ca         1 18S      -0.154500
     23 C14         -2.2240     3.4370    -6.2880 ca         1 18S      -0.029000
     24 C15          0.1000     5.8200    -8.0670 c3         1 18S      -0.096800
     25 H1          -0.2880    -0.8370     0.4790 hx         1 18S       0.119700
     26 HN1          0.6280    -0.5180    -1.9490 hn         1 18S       0.497800
     27 H2           2.4170     0.6410    -0.2750 h1         1 18S       0.095700
     28 HN2         -1.2170    -1.1410    -3.6720 hn         1 18S       0.464800
     29 HO2          2.9730    -1.7370    -0.0540 ho         1 18S       0.487000
     30 H3           1.6060    -1.0740     2.2130 h1         1 18S       0.067700
     31 HO3          3.7520    -0.0500     2.7420 ho         1 18S       0.460000
     32 H4           2.2060     1.9950     1.9510 h1         1 18S       0.123700
     33 HO4          1.2960     0.4410     4.1380 ho         1 18S       0.420000
     34 H5          -0.5300     0.5370     2.4870 h1         1 18S       0.080700
     35 H6          -0.0220     2.9280     3.4520 h1         1 18S       0.075200
     36 H6A          0.0120     3.4990     1.7010 h1         1 18S       0.075200
     37 HO6         -2.1340     3.3660     2.9270 ho         1 18S       0.439000
     38 H8          -2.9610     1.4470    -4.8400 h4         1 18S       0.027800
     39 H10          0.8040     2.2840    -5.1230 ha         1 18S       0.147000
     40 H11          1.6040     4.1330    -6.5580 ha         1 18S       0.174000
     41 H13         -2.4790     5.0900    -7.6510 ha         1 18S       0.174000
     42 H14         -3.3070     3.2430    -6.2200 ha         1 18S       0.147000
     43 H15         -0.6030     6.6910    -8.0500 hc         1 18S       0.083700
     44 H15A         0.1640     5.4500    -9.1260 hc         1 18S       0.083700
     45 H15B         1.1160     6.1710    -7.7590 hc         1 18S       0.083700
     46 H12          0.1490     1.0840    -1.7580 hn         1 18S       0.497800
     47 H23         -2.7060    -0.3950    -3.4180 hn         1 18S       0.464800
@<TRIPOS>BOND
     1     1     2 1   
     2     1     4 1   
     3     1    13 1   
     4     1    25 1   
     5     2    16 1   
     6     2    26 1   
     7     2    46 1   
     8     3    16 2   
     9     4     6 1   
    10     4     7 1   
    11     4    27 1   
    12     5     8 1   
    13     5    16 1   
    14     5    28 1   
    15     5    47 1   
    16     6    29 1   
    17     7     9 1   
    18     7    10 1   
    19     7    30 1   
    20     8    17 2   
    21     9    31 1   
    22    10    11 1   
    23    10    12 1   
    24    10    32 1   
    25    11    33 1   
    26    12    13 1   
    27    12    14 1   
    28    12    34 1   
    29    14    15 1   
    30    14    35 1   
    31    14    36 1   
    32    15    37 1   
    33    17    18 1   
    34    17    38 1   
    35    18    19 ar  
    36    18    23 ar  
    37    19    20 ar  
    38    19    39 1   
    39    20    21 ar  
    40    20    40 1   
    41    21    22 ar  
    42    21    24 1   
    43    22    23 ar  
    44    22    41 1   
    45    23    42 1   
    46    24    43 1   
    47    24    44 1   
    48    24    45 1   
@<TRIPOS>SUBSTRUCTURE
     1 18S         1 TEMP              0 ****  ****    0 ROOT
