@<TRIPOS>MOLECULE
18S
   45    47     1     0     0
SMALL
bcc


@<TRIPOS>ATOM
      1 C1           0.0000     0.0000     0.0000 c3         1 18S       0.025000
      2 N1          -0.4890     0.0570    -1.3800 ns         1 18S       0.175000
      3 S1          -2.4750    -1.4990    -0.5470 s          1 18S      -0.394000
      4 C2           1.5300     0.0000     0.0000 c3         1 18S       0.023000
      5 N2          -2.0650    -0.5460    -2.9930 ns         1 18S       0.206000
      6 O2           2.0080    -1.1680    -0.6720 oh         1 18S      -0.299000
      7 C3           2.0340     0.0000     1.4460 c3         1 18S       0.039000
      8 N3          -1.3620     0.1900    -3.9550 n2         1 18S      -0.097000
      9 O3           3.4610     0.0730     1.4560 oh         1 18S      -0.318000
     10 C4           1.4520     1.2150     2.1780 c3         1 18S       0.026000
     11 O4           1.8560     1.1860     3.5480 oh         1 18S      -0.305000
     12 C5          -0.0760     1.1670     2.0940 c3         1 18S       0.062000
     13 O5          -0.4760     1.1380     0.7220 os         1 18S      -0.246000
     14 C6          -0.6620     2.4080     2.7700 c3         1 18S       0.074000
     15 O6          -2.0880     2.3080     2.7940 oh         1 18S      -0.300000
     16 C7          -1.6150    -0.5980    -1.7230 c2         1 18S      -0.124000
     17 C8          -1.7950     0.2410    -5.1770 c2         1 18S      -0.404000
     18 C9          -1.0540     1.0160    -6.1900 c3         1 18S      -0.155000
     19 C10         -1.5180     1.0730    -7.5070 c2         1 18S      -0.039500
     20 C11         -0.8190     1.7990    -8.4500 c2         1 18S      -0.123000
     21 C12          0.3370     2.4710    -8.0930 c2         1 18S      -0.030000
     22 C13          0.8020     2.4190    -6.7910 c2         1 18S      -0.123000
     23 C14          0.1100     1.7020    -5.8370 c2         1 18S      -0.039500
     24 C15          1.0930     3.2630    -9.1290 c3         1 18S      -0.071000
     25 H1          -0.3590    -0.9040     0.4780 h2         1 18S       0.143000
     26 HN1         -0.0110     0.6170    -2.0570 hn         1 18S       0.085000
     27 H2           1.8910     0.8870    -0.5070 h1         1 18S       0.054000
     28 HN2         -2.8830    -1.0600    -3.2550 hn         1 18S       0.124000
     29 HO2          2.7140    -0.9320    -1.2510 ho         1 18S       0.197000
     30 H3           1.7090    -0.9080     1.9410 h1         1 18S       0.074000
     31 HO3          3.8100    -0.6640     1.9300 ho         1 18S       0.203000
     32 H4           1.8110     2.1230     1.7090 h1         1 18S       0.058000
     33 HO4          2.5570     1.8020     3.6820 ho         1 18S       0.197000
     34 H5          -0.4360     0.2750     2.5920 h1         1 18S       0.083000
     35 H6          -0.2870     2.4770     3.7840 h1         1 18S       0.035500
     36 H6A         -0.3710     3.2920     2.2160 h1         1 18S       0.035500
     37 HO6         -2.4380     2.9550     3.3840 ho         1 18S       0.185000
     38 H8          -1.8360     1.3190    -5.2730 DU         1 18S       0.330000
     39 H10         -2.4220     0.5470    -7.7880 ha         1 18S       0.121500
     40 H11         -1.1770     1.8440    -9.4710 ha         1 18S       0.115000
     41 H13          1.7060     2.9490    -6.5180 ha         1 18S       0.115000
     42 H14          0.4750     1.6620    -4.8180 ha         1 18S       0.121500
     43 H15          0.5010     3.3330   -10.0330 hc         1 18S       0.053333
     44 H15A         1.2920     4.2570    -8.7490 hc         1 18S       0.053333
     45 H15B         2.0310     2.7660    -9.3490 hc         1 18S       0.053333
@<TRIPOS>BOND
     1     1     2 1
     2     1     4 1
     3     1    13 1
     4     1    25 1
     5     2    16 1
     6     2    26 1
     7     3    16 1
     8     4     6 1
     9     4     7 1
    10     4    27 1
    11     5     8 1
    12     5    16 1
    13     5    28 1
    14     6    29 1
    15     7     9 1
    16     7    10 1
    17     7    30 1
    18     8    17 1
    19     9    31 1
    20    10    11 1
    21    10    12 1
    22    10    32 1
    23    11    33 1
    24    12    13 1
    25    12    14 1
    26    12    34 1
    27    14    15 1
    28    14    35 1
    29    14    36 1
    30    15    37 1
    31    17    18 1
    32    17    38 1
    33    18    19 1
    34    18    23 1
    35    18    38 1
    36    19    20 1
    37    19    39 1
    38    20    21 1
    39    20    40 1
    40    21    22 1
    41    21    24 1
    42    22    23 1
    43    22    41 1
    44    23    42 1
    45    24    43 1
    46    24    44 1
    47    24    45 1
@<TRIPOS>SUBSTRUCTURE
     1 18S         1 TEMP              0 ****  ****    0 ROOT
