@<TRIPOS>MOLECULE
18U
   32    33     1     0     0
SMALL
bcc


@<TRIPOS>ATOM
      1 C4           0.4330    -0.9430     0.0060 ca         1 18U      -0.129000
      2 C6           1.7590    -0.5990     0.2550 ca         1 18U      -0.111000
      3 C8           2.0840     0.2510     1.3180 ca         1 18U      -0.091600
      4 C9           3.5430     0.6100     1.5950 c          1 18U       0.906200
      5 O10          4.4140     0.1450     0.8100 o          1 18U      -0.815300
      6 O11          3.7820     1.3450     2.5910 o          1 18U      -0.815300
      7 C7           1.0620     0.7600     2.1270 ca         1 18U      -0.111000
      8 C5          -0.2650     0.4190     1.8860 ca         1 18U      -0.129000
      9 C3          -0.5840    -0.4400     0.8270 ca         1 18U      -0.200300
     10 C2          -1.9950    -0.8510     0.5930 c3         1 18U       0.184100
     11 N1          -2.8100     0.2100    -0.0580 ny         1 18U      -0.723900
     12 S13         -4.3410    -0.4010    -0.8570 sy         1 18U       1.505200
     13 O16         -4.6360     0.5570    -1.8130 o          1 18U      -0.615300
     14 O17         -3.9610    -1.6510    -1.3710 o          1 18U      -0.615300
     15 C15         -5.3230    -0.5570     0.3900 cc         1 18U      -0.567500
     16 C19         -5.8110    -1.8580     0.7890 cc         1 18U      -0.046000
     17 C22         -6.7010    -1.7760     1.8260 cd         1 18U      -0.243100
     18 S20         -6.9330    -0.1920     2.3010 ss         1 18U       0.234200
     19 C18         -5.8970     0.4350     1.2020 cd         1 18U      -0.037700
     20 C21         -5.5970     1.9350     1.1290 c          1 18U       0.935200
     21 O24         -4.4310     2.2480     0.7530 o          1 18U      -0.775800
     22 O23         -6.5090     2.7190     1.4620 o          1 18U      -0.775800
     23 H1           0.1850    -1.6170    -0.8260 ha         1 18U       0.114500
     24 H2           2.5790    -0.9850    -0.3720 ha         1 18U       0.164500
     25 H4           1.3400     1.4320     2.9560 ha         1 18U       0.164500
     26 H5          -1.0650     0.8190     2.5260 ha         1 18U       0.114500
     27 H6          -2.0260    -1.7620    -0.0760 hx         1 18U       0.087200
     28 H7          -2.4940    -1.1010     1.5730 hx         1 18U       0.087200
     29 H8          -2.2270     0.6940    -0.7440 hn         1 18U       0.478800
     30 H9          -5.4860    -2.7790     0.2900 ha         1 18U       0.173000
     31 H10         -7.2020    -2.6220     2.2940 h4         1 18U       0.177000
     32 H12         -3.0500     0.9360     0.6500 hn         1 18U       0.478800
@<TRIPOS>BOND
     1     1     2 ar  
     2     1     9 ar  
     3     1    23 1   
     4     2     3 ar  
     5     2    24 1   
     6     3     4 1   
     7     3     7 ar  
     8     4     5 1   
     9     4     6 1   
    10     7     8 ar  
    11     7    25 1   
    12     8     9 ar  
    13     8    26 1   
    14     9    10 1   
    15    10    11 1   
    16    10    27 1   
    17    10    28 1   
    18    11    12 1   
    19    11    29 1   
    20    11    32 1   
    21    12    13 2   
    22    12    14 2   
    23    12    15 1   
    24    15    16 1   
    25    15    19 2   
    26    16    17 2   
    27    16    30 1   
    28    17    18 1   
    29    17    31 1   
    30    18    19 1   
    31    19    20 1   
    32    20    21 1   
    33    20    22 1   
@<TRIPOS>SUBSTRUCTURE
     1 18U         1 TEMP              0 ****  ****    0 ROOT
