@<TRIPOS>MOLECULE
18U
   31    32     1     0     0
SMALL
bcc


@<TRIPOS>ATOM
      1 C4           0.0000     0.0000     0.0000 ca         1 18U      -0.122000
      2 C6           1.3790     0.0000     0.0000 ca         1 18U      -0.083500
      3 C8           2.0740     0.0000     1.2110 ca         1 18U      -0.111600
      4 C9           3.5520     0.0010     1.2190 c          1 18U       0.982200
      5 O10          4.1640     0.0020     0.1700 o          1 18U      -0.898800
      6 O11          4.2190    -0.0000     2.3890 o          1 18U      -0.898800
      7 C7           1.3670    -0.0010     2.4150 ca         1 18U      -0.083500
      8 C5          -0.0120    -0.0010     2.4000 ca         1 18U      -0.122000
      9 C3          -0.6940     0.0040     1.1960 ca         1 18U      -0.135300
     10 C2          -2.2010     0.0040     1.1890 c3         1 18U       0.286100
     11 N1          -2.6910     1.3850     1.1930 n7         1 18U      -0.545100
     12 S13         -4.2650     1.7080     0.7940 sy         1 18U       1.047200
     13 O16         -4.4330     3.1120     0.9290 o          1 18U      -0.605800
     14 O17         -4.5250     1.0050    -0.4130 o          1 18U      -0.605800
     15 C15         -5.2780     0.9650     2.0300 cc         1 18U      -0.196500
     16 C19         -6.1610    -0.0550     1.7710 cc         1 18U      -0.047000
     17 C22         -6.8480    -0.4960     2.8320 cd         1 18U      -0.135100
     18 S20         -6.4140     0.3640     4.2390 ss         1 18U      -0.240800
     19 C18         -5.2600     1.3430     3.3450 cd         1 18U       0.176300
     20 C21         -4.4210     2.3990     3.9130 c          1 18U       0.975200
     21 O24         -4.5740     2.7610     5.2030 o          1 18U      -0.845300
     22 O23         -3.5850     2.9490     3.2220 o          1 18U      -0.845300
     23 H1          -0.5400     0.0020    -0.9390 ha         1 18U       0.095000
     24 H2           1.9220    -0.0030    -0.9370 ha         1 18U       0.118500
     25 H4           1.9000    -0.0040     3.3580 ha         1 18U       0.118500
     26 H5          -0.5630    -0.0000     3.3330 ha         1 18U       0.095000
     27 H6          -2.5660    -0.5100     2.0700 h1         1 18U       0.002200
     28 H7          -2.5580    -0.5030     0.3010 h1         1 18U       0.002200
     29 H8          -2.0690     2.1350     1.4220 hn         1 18U       0.377800
     30 H9          -6.2920    -0.4730     0.7800 ha         1 18U       0.118000
     31 H10         -7.5820    -1.2910     2.8000 h4         1 18U       0.128000
@<TRIPOS>BOND
     1     1     2 ar  
     2     1     9 ar  
     3     1    23 1   
     4     2     3 ar  
     5     2    24 1   
     6     3     4 1   
     7     3     7 ar  
     8     4     5 1   
     9     4     6 1   
    10     7     8 ar  
    11     7    25 1   
    12     8     9 ar  
    13     8    26 1   
    14     9    10 1   
    15    10    11 1   
    16    10    27 1   
    17    10    28 1   
    18    11    12 1   
    19    11    29 1   
    20    12    13 2   
    21    12    14 2   
    22    12    15 1   
    23    15    16 1   
    24    15    19 2   
    25    16    17 2   
    26    16    30 1   
    27    17    18 1   
    28    17    31 1   
    29    18    19 1   
    30    19    20 1   
    31    20    21 1   
    32    20    22 1   
@<TRIPOS>SUBSTRUCTURE
     1 18U         1 TEMP              0 ****  ****    0 ROOT
