@<TRIPOS>MOLECULE
18V
   54    56     1     0     0
SMALL
bcc


@<TRIPOS>ATOM
      1 FAE          0.0000     0.0000     0.0000 f          1 18V      -0.227300
      2 CAK          1.3990     0.0000     0.0000 c3         1 18V       0.212900
      3 CAL          1.9100     0.0000     1.4420 c3         1 18V       0.164400
      4 OAS          1.5320    -1.2220     2.0810 os         1 18V      -0.284900
      5 CBA          1.9110    -1.3850     3.3760 ca         1 18V       0.113100
      6 CAI          2.6280    -0.3910     4.0160 ca         1 18V      -0.140000
      7 CAZ          1.5710    -2.5490     4.0600 ca         1 18V       0.134100
      8 OAR          0.8610    -3.5230     3.4310 os         1 18V      -0.289900
      9 CAB          0.5470    -4.6910     4.1920 c3         1 18V       0.240700
     10 CAG          1.9560    -2.7170     5.3830 ca         1 18V      -0.181000
     11 CAF          2.6760    -1.7320     6.0250 ca         1 18V      -0.081000
     12 CAX          3.0150    -0.5600     5.3470 ca         1 18V      -0.129500
     13 CBD          3.7870     0.4960     6.0340 cc         1 18V       0.533900
     14 NAQ          4.1590     1.6270     5.5050 nd         1 18V      -0.550000
     15 SAU          4.3450     0.4330     7.7040 ss         1 18V      -0.327300
     16 CBC          5.0760     2.0250     7.5160 cc         1 18V      -0.074700
     17 CAM          5.8310     2.7820     8.5780 c3         1 18V       0.063900
     18 CAJ          4.8560     3.6550     9.3710 c3         1 18V      -0.032400
     19 CAA          5.6220     4.4230    10.4500 c3         1 18V       0.006900
     20 CBB          4.8420     2.4490     6.2690 cd         1 18V       0.330600
     21 CAN          5.3330     3.7830     5.7710 c3         1 18V       0.059400
     22 SAT          6.9820     3.5890     5.0520 ss         1 18V      -0.383400
     23 C2           7.3020     5.2520     4.5660 ca         1 18V       0.797300
     24 N3           8.4530     5.5430     3.9770 nb         1 18V      -0.697500
     25 N1           6.3820     6.1790     4.7940 nb         1 18V      -0.697500
     26 C6           6.5900     7.4460     4.4410 ca         1 18V       0.569200
     27 NAC          5.6230     8.4090     4.6830 nv         1 18V      -0.584000
     28 C5           7.7890     7.7900     3.8240 ca         1 18V      -0.447600
     29 C4           8.7280     6.7880     3.5960 ca         1 18V       0.569200
     30 NAD          9.9370     7.0840     2.9850 nv         1 18V      -0.584000
     31 H1           1.7600    -0.8840    -0.5110 h1         1 18V       0.017700
     32 H2           1.7600     0.8840    -0.5110 h1         1 18V       0.017700
     33 H3           1.4780     0.8360     1.9780 h1         1 18V       0.016200
     34 H4           2.9900     0.0890     1.4430 h1         1 18V       0.016200
     35 H5           2.8890     0.5170     3.4860 ha         1 18V       0.141000
     36 H6          -0.0440    -4.4110     5.0560 h1         1 18V      -0.002300
     37 H7           1.4630    -5.1660     4.5200 h1         1 18V      -0.002300
     38 H8          -0.0180    -5.3820     3.5770 h1         1 18V      -0.002300
     39 H9           1.6920    -3.6250     5.9110 ha         1 18V       0.125000
     40 H10          2.9750    -1.8650     7.0580 ha         1 18V       0.114000
     41 H11          6.5800     3.4100     8.1100 hc         1 18V       0.033200
     42 H12          6.3140     2.0810     9.2470 hc         1 18V       0.033200
     43 H13          4.1070     3.0270     9.8380 hc         1 18V       0.019200
     44 H14          4.3730     4.3570     8.7020 hc         1 18V       0.019200
     45 H15          4.9280     5.0210    11.0290 hc         1 18V       0.002700
     46 H16          6.1270     3.7220    11.1030 hc         1 18V       0.002700
     47 H17          6.3530     5.0710     9.9820 hc         1 18V       0.002700
     48 H18          4.6520     4.1600     5.0170 h1         1 18V       0.060700
     49 H19          5.3790     4.4820     6.5970 h1         1 18V       0.060700
     50 H20          4.9150     8.5910     4.0000 hn         1 18V       0.276800
     51 H21          5.6230     8.9110     5.5490 hn         1 18V       0.276800
     52 H22          7.9850     8.8120     3.5250 ha         1 18V       0.131000
     53 H23         10.6070     6.3590     2.8250 hn         1 18V       0.276800
     54 H24         10.1380     8.0230     2.7020 hn         1 18V       0.276800
@<TRIPOS>BOND
     1     1     2 1   
     2     2     3 1   
     3     2    31 1   
     4     2    32 1   
     5     3     4 1   
     6     3    33 1   
     7     3    34 1   
     8     4     5 1   
     9     5     6 ar  
    10     5     7 ar  
    11     6    12 ar  
    12     6    35 1   
    13     7     8 1   
    14     7    10 ar  
    15     8     9 1   
    16     9    36 1   
    17     9    37 1   
    18     9    38 1   
    19    10    11 ar  
    20    10    39 1   
    21    11    12 ar  
    22    11    40 1   
    23    12    13 1   
    24    13    14 2   
    25    13    15 1   
    26    14    20 1   
    27    15    16 1   
    28    16    17 1   
    29    16    20 2   
    30    17    18 1   
    31    17    41 1   
    32    17    42 1   
    33    18    19 1   
    34    18    43 1   
    35    18    44 1   
    36    19    45 1   
    37    19    46 1   
    38    19    47 1   
    39    20    21 1   
    40    21    22 1   
    41    21    48 1   
    42    21    49 1   
    43    22    23 1   
    44    23    24 ar  
    45    23    25 ar  
    46    24    29 ar  
    47    25    26 ar  
    48    26    27 1   
    49    26    28 ar  
    50    27    50 1   
    51    27    51 1   
    52    28    29 ar  
    53    28    52 1   
    54    29    30 1   
    55    30    53 1   
    56    30    54 1   
@<TRIPOS>SUBSTRUCTURE
     1 18V         1 TEMP              0 ****  ****    0 ROOT
