@<TRIPOS>MOLECULE
18V
   54    56     1     0     0
SMALL
bcc


@<TRIPOS>ATOM
      1 FAE          0.0900    -1.2900     0.6130 f          1 18V      -0.240300
      2 CAK          1.4340    -0.9820     0.5720 c3         1 18V       0.157900
      3 CAL          1.9790    -0.6000     1.9550 c3         1 18V       0.087400
      4 OAS          1.9090     0.8290     2.0100 os         1 18V      -0.308900
      5 CBA          2.1960     1.3940     3.2370 ca         1 18V       0.098100
      6 CAI          2.7550     0.7090     4.3140 ca         1 18V      -0.135000
      7 CAZ          1.9070     2.7810     3.3470 ca         1 18V       0.117100
      8 OAR          1.3630     3.3640     2.2230 os         1 18V      -0.299900
      9 CAB          1.0490     4.7480     2.3280 c3         1 18V       0.109700
     10 CAG          2.1840     3.4490     4.5410 ca         1 18V      -0.182000
     11 CAF          2.7390     2.7560     5.6150 ca         1 18V      -0.117000
     12 CAX          3.0290     1.3910     5.5110 ca         1 18V      -0.132500
     13 CBD          3.6180     0.6910     6.6420 cc         1 18V       0.458900
     14 NAQ          3.6370    -0.6350     6.8040 nd         1 18V      -0.618000
     15 SAU          4.3830     1.5690     7.9170 ss         1 18V      -0.094300
     16 CBC          4.7500     0.1420     8.7250 cc         1 18V      -0.162700
     17 CAM          5.4850     0.1010    10.0000 c3         1 18V      -0.015100
     18 CAJ          4.6190     0.4230    11.2060 c3         1 18V      -0.075400
     19 CAA          3.6720    -0.6950    11.5550 c3         1 18V      -0.097100
     20 CBB          4.2850    -0.9570     7.9940 cd         1 18V       0.337600
     21 CAN          4.4260    -2.3670     8.4210 c3         1 18V      -0.055600
     22 SAT          6.0270    -2.8850     7.8490 ss         1 18V      -0.204400
     23 C2           6.1740    -4.5300     8.3660 ca         1 18V       0.792300
     24 N3           5.1570    -5.0800     9.0850 nb         1 18V      -0.797000
     25 N1           7.3390    -5.1300     7.9890 nb         1 18V      -0.797000
     26 C6           7.5050    -6.4350     8.3940 ca         1 18V       0.705700
     27 NAC          8.7140    -7.0750     8.1310 nv         1 18V      -0.939000
     28 C5           6.4950    -7.1180     9.1290 ca         1 18V      -0.501600
     29 C4           5.3120    -6.3970     9.4530 ca         1 18V       0.705700
     30 NAD          4.2640    -7.0500    10.0980 nv         1 18V      -0.939000
     31 H1           1.5900    -0.1270    -0.1430 h1         1 18V       0.059700
     32 H2           1.9970    -1.8840     0.2030 h1         1 18V       0.059700
     33 H3           3.0490    -0.9210     2.0510 h1         1 18V       0.058200
     34 H4           1.3600    -1.0540     2.7720 h1         1 18V       0.058200
     35 H5           2.9840    -0.3650     4.2360 ha         1 18V       0.164000
     36 H6           1.9710     5.3500     2.5180 h1         1 18V       0.045700
     37 H7           0.6200     4.9910     1.3220 h1         1 18V       0.045700
     38 H8           0.2930     4.9230     3.1310 h1         1 18V       0.045700
     39 H9           1.9650     4.5210     4.6460 ha         1 18V       0.143000
     40 H10          2.9460     3.2940     6.5540 ha         1 18V       0.136000
     41 H11          5.9450    -0.9180    10.1340 hc         1 18V       0.062200
     42 H12          6.3340     0.8380     9.9590 hc         1 18V       0.062200
     43 H13          4.0380     1.3630    11.0120 hc         1 18V       0.042200
     44 H14          5.2950     0.6240    12.0810 hc         1 18V       0.042200
     45 H15          3.0440    -0.4090    12.4340 hc         1 18V       0.037367
     46 H16          4.2350    -1.6250    11.8110 hc         1 18V       0.037367
     47 H17          2.9950    -0.9200    10.6950 hc         1 18V       0.037367
     48 H18          3.6210    -3.0140     7.9890 h1         1 18V       0.095200
     49 H19          4.3550    -2.4380     9.5360 h1         1 18V       0.095200
     50 H20          9.3230    -6.6490     7.4700 hn         1 18V       0.416550
     51 H21          8.6690    -8.0660     8.0970 hn         1 18V       0.416550
     52 H22          6.6240    -8.1620     9.4340 ha         1 18V       0.146000
     53 H23          3.5350    -6.4890    10.4730 hn         1 18V       0.416550
     54 H24          4.5250    -7.8390    10.6400 hn         1 18V       0.416550
@<TRIPOS>BOND
     1     1     2 1   
     2     2     3 1   
     3     2    31 1   
     4     2    32 1   
     5     3     4 1   
     6     3    33 1   
     7     3    34 1   
     8     4     5 1   
     9     5     6 ar  
    10     5     7 ar  
    11     6    12 ar  
    12     6    35 1   
    13     7     8 1   
    14     7    10 ar  
    15     8     9 1   
    16     9    36 1   
    17     9    37 1   
    18     9    38 1   
    19    10    11 ar  
    20    10    39 1   
    21    11    12 ar  
    22    11    40 1   
    23    12    13 1   
    24    13    14 2   
    25    13    15 1   
    26    14    20 1   
    27    15    16 1   
    28    16    17 1   
    29    16    20 2   
    30    17    18 1   
    31    17    41 1   
    32    17    42 1   
    33    18    19 1   
    34    18    43 1   
    35    18    44 1   
    36    19    45 1   
    37    19    46 1   
    38    19    47 1   
    39    20    21 1   
    40    21    22 1   
    41    21    48 1   
    42    21    49 1   
    43    22    23 1   
    44    23    24 ar  
    45    23    25 ar  
    46    24    29 ar  
    47    25    26 ar  
    48    26    27 1   
    49    26    28 ar  
    50    27    50 1   
    51    27    51 1   
    52    28    29 ar  
    53    28    52 1   
    54    29    30 1   
    55    30    53 1   
    56    30    54 1   
@<TRIPOS>SUBSTRUCTURE
     1 18V         1 TEMP              0 ****  ****    0 ROOT
