@<TRIPOS>MOLECULE
18W
   49    50     1     0     0
SMALL
bcc


@<TRIPOS>ATOM
      1 O3A          4.3810     3.4780     1.1360 o          1 18W      -0.881300
      2 C9A          4.9280     2.9130     0.1370 c          1 18W       0.902600
      3 O4A          6.0700     3.2690    -0.2850 o          1 18W      -0.881300
      4 C8A          4.1840     1.7540    -0.5350 c3         1 18W      -0.174400
      5 C7A          4.4250     1.6940    -2.0300 c3         1 18W       0.002900
      6 C3A          3.7370     0.5940    -2.7310 cc         1 18W      -0.119300
      7 C2A          2.5920     0.7390    -3.5940 cc         1 18W      -0.111300
      8 C5A          1.8710     1.9970    -3.8480 c3         1 18W      -0.110100
      9 C6A          0.8180     1.9860    -4.9650 c          1 18W       0.906600
     10 O2A          1.1710     2.2460    -6.1570 o          1 18W      -0.879300
     11 O1A         -0.4010     1.7930    -4.6640 o          1 18W      -0.879300
     12 C1A          2.3170    -0.5380    -4.1310 cd         1 18W      -0.100600
     13 CHA          1.2430    -0.8990    -5.0730 c3         1 18W      -0.041800
     14 NA           3.2530    -1.4400    -3.6360 na         1 18W      -0.174100
     15 C4A          4.1260    -0.7780    -2.7700 cd         1 18W      -0.104100
     16 CHB          5.2870    -1.3230    -2.1280 cf         1 18W      -0.098200
     17 C1B          5.8580    -2.5530    -2.0570 cc         1 18W      -0.011400
     18 C2B          5.4880    -3.9500    -2.4730 cc         1 18W       0.012800
     19 C5B          4.0980    -4.3620    -2.6990 c3         1 18W      -0.171200
     20 C6B          3.6660    -5.7400    -2.1380 c          1 18W       0.923600
     21 O2B          3.6520    -5.9220    -0.8890 o          1 18W      -0.850300
     22 O1B          3.2410    -6.5930    -2.9720 o          1 18W      -0.850300
     23 NB           7.1960    -2.6590    -1.5340 ns         1 18W      -0.500100
     24 C4B          7.7550    -3.8910    -1.9490 c          1 18W       0.682700
     25 O5B          8.9620    -4.1460    -1.7950 o          1 18W      -0.670500
     26 C3B          6.6280    -4.7170    -2.4990 cd         1 18W      -0.158400
     27 C7B          6.8510    -6.1120    -2.9290 c3         1 18W      -0.018200
     28 C8B          7.8220    -6.2060    -4.0910 c3         1 18W      -0.173400
     29 C9B          8.3970    -7.6030    -4.3460 c          1 18W       0.910600
     30 O4B          8.7040    -7.9020    -5.5460 o          1 18W      -0.882300
     31 O3B          8.6120    -8.4060    -3.3900 o          1 18W      -0.882300
     32 H2           3.0890     1.8570    -0.3280 hc         1 18W       0.029200
     33 H3           4.5320     0.8010    -0.0590 hc         1 18W       0.029200
     34 H4           4.0940     2.6710    -2.4790 hc         1 18W       0.040700
     35 H5           5.5350     1.6210    -2.2030 hc         1 18W       0.040700
     36 H6           1.3590     2.3080    -2.8970 hc         1 18W       0.032700
     37 H7           2.6220     2.7930    -4.1050 hc         1 18W       0.032700
     38 H9           1.2180    -1.9930    -5.2980 hc         1 18W       0.050700
     39 H10          0.2560    -0.5830    -4.6430 hc         1 18W       0.050700
     40 H11          1.3820    -0.3240    -6.0260 hc         1 18W       0.050700
     41 H12          3.2760    -2.4050    -3.8410 hn         1 18W       0.296700
     42 H13          5.8440    -0.4910    -1.6340 ha         1 18W       0.138000
     43 H15          3.4110    -3.6280    -2.1970 hc         1 18W       0.046200
     44 H16          3.8960    -4.3790    -3.8050 hc         1 18W       0.046200
     45 H18          7.2710    -6.7050    -2.0700 hc         1 18W       0.076700
     46 H19          5.8630    -6.5760    -3.2050 hc         1 18W       0.076700
     47 H20          7.3250    -5.8500    -5.0290 hc         1 18W       0.024700
     48 H21          8.7000    -5.5350    -3.8920 hc         1 18W       0.024700
     49 H14          7.7470    -1.8480    -1.4180 hn         1 18W       0.293500
@<TRIPOS>BOND
     1     1     2 1   
     2     2     3 1   
     3     2     4 1   
     4     4     5 1   
     5     4    32 1   
     6     4    33 1   
     7     5     6 1   
     8     5    34 1   
     9     5    35 1   
    10     6     7 1   
    11     6    15 2   
    12     7     8 1   
    13     7    12 2   
    14     8     9 1   
    15     8    36 1   
    16     8    37 1   
    17     9    10 1   
    18     9    11 1   
    19    12    13 1   
    20    12    14 1   
    21    13    38 1   
    22    13    39 1   
    23    13    40 1   
    24    14    15 1   
    25    14    41 1   
    26    15    16 1   
    27    16    17 2   
    28    16    42 1   
    29    17    18 1   
    30    17    23 1   
    31    18    19 1   
    32    18    26 2   
    33    19    20 1   
    34    19    43 1   
    35    19    44 1   
    36    20    21 1   
    37    20    22 1   
    38    23    24 1   
    39    23    49 1   
    40    24    25 2   
    41    24    26 1   
    42    26    27 1   
    43    27    28 1   
    44    27    45 1   
    45    27    46 1   
    46    28    29 1   
    47    28    47 1   
    48    28    48 1   
    49    29    30 1   
    50    29    31 1   
@<TRIPOS>SUBSTRUCTURE
     1 18W         1 TEMP              0 ****  ****    0 ROOT
