@<TRIPOS>MOLECULE
molecule
   49    50     1     0     0
SMALL
bcc


@<TRIPOS>ATOM
      1 O3A          0.0000     0.0000     0.0000 o          1 18W      -0.878800
      2 C9A          1.2070     0.0000     0.0000 c          1 18W       0.896600
      3 O4A          1.8800     0.0000     1.1620 o          1 18W      -0.878800
      4 C8A          1.9610    -0.0060    -1.3060 c3         1 18W      -0.176400
      5 C7A          0.9650    -0.0110    -2.4680 c3         1 18W       0.003900
      6 C3A          1.7180    -0.0160    -3.7740 cc         1 18W      -0.080300
      7 C2A          2.1330    -1.1430    -4.4880 cd         1 18W      -0.088300
      8 C5A          1.9060    -2.5780    -4.0890 c3         1 18W      -0.114100
      9 C6A          0.6000    -3.0600    -4.6650 c          1 18W       0.896600
     10 O2A          0.1890    -4.3170    -4.4370 o          1 18W      -0.867800
     11 O1A         -0.0770    -2.3140    -5.3310 o          1 18W      -0.867800
     12 C1A          2.7760    -0.7180    -5.6030 cc         1 18W      -0.147600
     13 CHA          3.3900    -1.6070    -6.6530 c3         1 18W      -0.002800
     14 NA           2.7810     0.6400    -5.6190 na         1 18W      -0.175100
     15 C4A          2.1250     1.0950    -4.4960 cd         1 18W      -0.119100
     16 CHB          1.9150     2.4430    -4.1410 cf         1 18W      -0.030200
     17 C1B          2.6650     3.4390    -4.7340 cd         1 18W      -0.021400
     18 C2B          2.4720     4.8260    -4.5890 cd         1 18W       0.036800
     19 C5B          1.4070     5.4970    -3.7590 c3         1 18W      -0.143200
     20 C6B          0.1380     5.6040    -4.5640 c          1 18W       0.903600
     21 O2B          0.1010     5.1800    -5.6940 o          1 18W      -0.859800
     22 O1B         -0.9530     6.1710    -4.0240 o          1 18W      -0.859800
     23 NB           3.7570     3.2530    -5.5790 ns         1 18W      -0.502100
     24 C4B          4.2210     4.4640    -5.9430 c          1 18W       0.712700
     25 O5B          5.1710     4.6710    -6.6800 o          1 18W      -0.712500
     26 C3B          3.4240     5.4510    -5.3360 cc         1 18W      -0.254400
     27 C7B          3.5990     6.9410    -5.4800 c3         1 18W       0.017800
     28 C8B          4.6330     7.4340    -4.4660 c3         1 18W      -0.175400
     29 C9B          4.8080     8.9240    -4.6100 c          1 18W       0.896600
     30 O4B          5.6710     9.5780    -3.8180 o          1 18W      -0.884800
     31 O3B          4.1710     9.5290    -5.4390 o          1 18W      -0.884800
     32 H2           2.5830     0.8790    -1.3680 hc         1 18W       0.028200
     33 H3           2.5840    -0.8900    -1.3600 hc         1 18W       0.028200
     34 H4           0.3420     0.8740    -2.4140 hc         1 18W       0.061200
     35 H5           0.3430    -0.8960    -2.4070 hc         1 18W       0.061200
     36 H6           2.7160    -3.1900    -4.4680 hc         1 18W       0.031200
     37 H7           1.8740    -2.6520    -3.0090 hc         1 18W       0.031200
     38 H9           2.6150    -2.2030    -7.1200 hc         1 18W       0.023367
     39 H10          3.8770    -0.9970    -7.4030 hc         1 18W       0.023367
     40 H11          4.1190    -2.2610    -6.1900 hc         1 18W       0.023367
     41 H12          3.1890     1.2140    -6.3300 hn         1 18W       0.277700
     42 H13          1.0870     2.7060    -3.4930 ha         1 18W       0.181000
     43 H15          1.2210     4.9100    -2.8680 hc         1 18W       0.053700
     44 H16          1.7410     6.4880    -3.4760 hc         1 18W       0.053700
     45 H18          3.9400     7.1690    -6.4830 hc         1 18W       0.054200
     46 H19          2.6520     7.4350    -5.3000 hc         1 18W       0.054200
     47 H20          5.5800     6.9400    -4.6470 hc         1 18W       0.031700
     48 H21          4.2930     7.2060    -3.4630 hc         1 18W       0.031700
     49 H14          4.1330     2.3710    -5.8660 hn         1 18W       0.310500
@<TRIPOS>BOND
     1    25    24 2   
     2    13    12 1   
     3    31    29 1   
     4    24    23 1   
     5    24    26 1   
     6    12    14 1   
     7    12     7 2   
     8    23    17 1   
     9    14    15 1   
    10    11     9 1   
    11    29    28 1   
    12    29    30 1   
    13    28    27 1   
    14     9    10 1   
    15     9     8 1   
    16    26    27 1   
    17    26    18 2   
    18     7     8 1   
    19     7     6 1   
    20    17    18 1   
    21    17    16 2   
    22    15     6 2   
    23    15    16 1   
    24    18    19 1   
    25     6     5 1   
    26    19    20 1   
    27     5     4 1   
    28     4     2 1   
    29    21    20 1   
    30    20    22 1   
    31     2     1 1   
    32     2     3 1   
    33     4    32 1   
    34     4    33 1   
    35     5    34 1   
    36     5    35 1   
    37     8    36 1   
    38     8    37 1   
    39    13    38 1   
    40    13    39 1   
    41    13    40 1   
    42    14    41 1   
    43    16    42 1   
    44    19    43 1   
    45    19    44 1   
    46    27    45 1   
    47    27    46 1   
    48    28    47 1   
    49    28    48 1   
    50    23    49 1   
@<TRIPOS>SUBSTRUCTURE
     1 18W         1 TEMP              0 ****  ****    0 ROOT
