@<TRIPOS>MOLECULE
18W
   49    50     1     0     0
SMALL
bcc


@<TRIPOS>ATOM
      1 O3A          0.0000     0.0000     0.0000 o          1 18W      -0.926800
      2 C9A          1.2070     0.0000     0.0000 c          1 18W       0.988600
      3 O4A          1.8800     0.0000     1.1620 o          1 18W      -0.926800
      4 C8A          1.9610    -0.0060    -1.3060 c3         1 18W      -0.132400
      5 C7A          0.9650    -0.0110    -2.4680 c3         1 18W       0.059900
      6 C3A          1.7180    -0.0160    -3.7740 cc         1 18W      -0.071300
      7 C2A          2.1330    -1.1430    -4.4880 cc         1 18W      -0.081300
      8 C5A          1.9060    -2.5780    -4.0890 c3         1 18W      -0.054100
      9 C6A          0.6000    -3.0600    -4.6650 c          1 18W       0.986600
     10 O2A          0.1890    -4.3170    -4.4370 o          1 18W      -0.917800
     11 O1A         -0.0770    -2.3140    -5.3310 o          1 18W      -0.917800
     12 C1A          2.7760    -0.7180    -5.6030 cd         1 18W      -0.350600
     13 CHA          3.3900    -1.6070    -6.6530 c3         1 18W       0.119200
     14 NA           2.7810     0.6400    -5.6190 na         1 18W       0.363900
     15 C4A          2.1250     1.0950    -4.4960 cd         1 18W      -0.321100
     16 CHB          1.9150     2.4430    -4.1410 cf         1 18W       0.047800
     17 C1B          2.6650     3.4390    -4.7340 cc         1 18W      -0.190400
     18 C2B          2.4720     4.8260    -4.5890 cc         1 18W       0.056800
     19 C5B          1.4070     5.4970    -3.7590 c3         1 18W      -0.086200
     20 C6B          0.1380     5.6040    -4.5640 c          1 18W       0.995600
     21 O2B          0.1010     5.1800    -5.6940 o          1 18W      -0.912300
     22 O1B         -0.9530     6.1710    -4.0240 o          1 18W      -0.912300
     23 NB           3.7570     3.2530    -5.5790 ns         1 18W      -0.083100
     24 C4B          4.2210     4.4640    -5.9430 c          1 18W       0.635700
     25 O5B          5.1710     4.6710    -6.6800 o          1 18W      -0.758500
     26 C3B          3.4240     5.4510    -5.3360 cd         1 18W      -0.284400
     27 C7B          3.5990     6.9410    -5.4800 c3         1 18W       0.082800
     28 C8B          4.6330     7.4340    -4.4660 c3         1 18W      -0.133400
     29 C9B          4.8080     8.9240    -4.6100 c          1 18W       0.990600
     30 O4B          5.6710     9.5780    -3.8180 o          1 18W      -0.934300
     31 O3B          4.1710     9.5290    -5.4390 o          1 18W      -0.934300
     32 H2           2.5840    -0.8900    -1.3600 hc         1 18W       0.004700
     33 H3           2.5830     0.8790    -1.3680 hc         1 18W       0.004700
     34 H4           0.3430    -0.8960    -2.4070 hc         1 18W       0.035700
     35 H5           0.3420     0.8740    -2.4140 hc         1 18W       0.035700
     36 H6           2.7160    -3.1900    -4.4680 hc         1 18W       0.008200
     37 H7           1.8740    -2.6520    -3.0090 hc         1 18W       0.008200
     38 H9           2.6150    -2.2040    -7.1200 hc         1 18W      -0.011967
     39 H10          3.8770    -0.9970    -7.4040 hc         1 18W      -0.011967
     40 H11          4.1190    -2.2610    -6.1900 hc         1 18W      -0.011967
     41 H12          3.1890     1.2140    -6.3300 hn         1 18W       0.108700
     42 H13          1.1640     2.6980    -3.4020 ha         1 18W       0.146000
     43 H15          1.2210     4.9100    -2.8680 hc         1 18W       0.027200
     44 H16          1.7410     6.4880    -3.4760 hc         1 18W       0.027200
     45 H18          3.9400     7.1690    -6.4830 hc         1 18W       0.026200
     46 H19          2.6520     7.4350    -5.3000 hc         1 18W       0.026200
     47 H20          5.5800     6.9400    -4.6470 hc         1 18W       0.008200
     48 H21          4.2930     7.2060    -3.4630 hc         1 18W       0.008200
     49 H14          4.1330     2.3710    -5.8660 hn         1 18W       0.161500
@<TRIPOS>BOND
     1     1     2 1   
     2     2     3 1   
     3     2     4 1   
     4     4     5 1   
     5     4    32 1   
     6     4    33 1   
     7     5     6 1   
     8     5    34 1   
     9     5    35 1   
    10     6     7 1   
    11     6    15 2   
    12     7     8 1   
    13     7    12 2   
    14     8     9 1   
    15     8    36 1   
    16     8    37 1   
    17     9    10 1   
    18     9    11 1   
    19    12    13 1   
    20    12    14 1   
    21    13    38 1   
    22    13    39 1   
    23    13    40 1   
    24    14    15 1   
    25    14    41 1   
    26    15    16 1   
    27    16    17 2   
    28    16    42 1   
    29    17    18 1   
    30    17    23 1   
    31    18    19 1   
    32    18    26 2   
    33    19    20 1   
    34    19    43 1   
    35    19    44 1   
    36    20    21 1   
    37    20    22 1   
    38    23    24 1   
    39    23    49 1   
    40    24    25 2   
    41    24    26 1   
    42    26    27 1   
    43    27    28 1   
    44    27    45 1   
    45    27    46 1   
    46    28    29 1   
    47    28    47 1   
    48    28    48 1   
    49    29    30 1   
    50    29    31 1   
@<TRIPOS>SUBSTRUCTURE
     1 18W         1 TEMP              0 ****  ****    0 ROOT
