@<TRIPOS>MOLECULE
18X
   39    41     1     0     0
SMALL
bcc


@<TRIPOS>ATOM
      1 C1           0.0000     0.0000     0.0000 ce         1 18X      -0.100900
      2 C2           1.4180     0.0000     0.0000 c          1 18X       0.727300
      3 C3          -0.7160     0.0010    -1.2390 cg         1 18X       0.218500
      4 N4          -1.2860    -0.0180    -2.2220 n1         1 18X      -0.394800
      5 O5           2.0270     0.0000     1.0540 o          1 18X      -0.591000
      6 O6           2.0920     0.0000    -1.1690 os         1 18X      -0.397900
      7 C7           3.5190     0.0000    -1.0950 c3         1 18X       0.226700
      8 C8          -0.6980    -0.0060     1.2100 c2         1 18X       0.109200
      9 N9          -2.0500    -0.0110     1.3460 n          1 18X       0.177800
     10 C10         -2.6020    -0.0220     2.5500 c          1 18X       0.582500
     11 C11         -1.5820    -0.0260     3.6660 c3         1 18X      -0.093300
     12 S12          0.0110    -0.0140     2.7780 ss         1 18X      -0.146700
     13 C13         -2.8650    -0.0060     0.2070 ca         1 18X      -0.238400
     14 C14         -3.2650    -1.2060    -0.3660 ca         1 18X      -0.033000
     15 C15         -4.0660    -1.2040    -1.4890 ca         1 18X      -0.073000
     16 C16         -4.4780     0.0040    -2.0480 cp         1 18X       0.031000
     17 C17         -4.0760     1.2090    -1.4730 ca         1 18X      -0.132000
     18 C18         -3.2790     1.2030    -0.3470 ca         1 18X       0.161900
     19 C19         -5.3390     0.0080    -3.2560 cp         1 18X      -0.019000
     20 C20         -5.7450    -1.1960    -3.8300 ca         1 18X      -0.081500
     21 C21         -6.5470    -1.1860    -4.9520 ca         1 18X      -0.114000
     22 C22         -6.9490     0.0160    -5.5090 ca         1 18X      -0.124000
     23 C23         -6.5490     1.2130    -4.9430 ca         1 18X      -0.114000
     24 C24         -5.7510     1.2160    -3.8170 ca         1 18X      -0.081500
     25 F25         -2.8900     2.3700     0.2130 f          1 18X      -0.123900
     26 O26         -3.8000    -0.0270     2.7370 o          1 18X      -0.597500
     27 H1           3.3640    -1.0610    -0.9430 h1         1 18X       0.018033
     28 H2           3.8620    -0.0170    -2.1220 h1         1 18X       0.018033
     29 H3           4.0920     0.3100    -0.2290 h1         1 18X       0.018033
     30 H4          -2.2260     0.4120     4.4190 h1         1 18X       0.109700
     31 H5          -1.2500    -1.0470     3.8150 h1         1 18X       0.109700
     32 H6          -2.8310    -1.8380     0.3990 ha         1 18X       0.121000
     33 H7          -4.2470    -2.0970    -2.0750 ha         1 18X       0.122000
     34 H8          -4.6880     2.0100    -1.8700 ha         1 18X       0.143000
     35 H9          -5.2390    -2.1410    -3.6780 ha         1 18X       0.116000
     36 H10         -6.8210    -1.7840    -5.8130 ha         1 18X       0.114500
     37 H11         -7.4640     0.0400    -6.4620 ha         1 18X       0.103000
     38 H12         -6.7830     2.1680    -5.3970 ha         1 18X       0.114500
     39 H13         -5.1680     2.1290    -3.8170 ha         1 18X       0.116000
@<TRIPOS>BOND
     1     1     2 1   
     2     1     3 1   
     3     1     8 2   
     4     2     5 2   
     5     2     6 1   
     6     3     4 3   
     7     6     7 1   
     8     7    27 1   
     9     7    28 1   
    10     7    29 1   
    11     8     9 1   
    12     8    12 1   
    13     9    10 1   
    14     9    13 1   
    15    10    11 1   
    16    10    26 2   
    17    11    12 1   
    18    11    30 1   
    19    11    31 1   
    20    13    14 ar  
    21    13    18 ar  
    22    14    15 ar  
    23    14    32 1   
    24    15    16 ar  
    25    15    33 1   
    26    16    17 ar  
    27    16    19 1   
    28    17    18 ar  
    29    17    34 1   
    30    18    25 1   
    31    19    20 ar  
    32    19    24 ar  
    33    20    21 ar  
    34    20    35 1   
    35    21    22 ar  
    36    21    36 1   
    37    22    23 ar  
    38    22    37 1   
    39    23    24 ar  
    40    23    38 1   
    41    24    39 1   
@<TRIPOS>SUBSTRUCTURE
     1 18X         1 TEMP              0 ****  ****    0 ROOT
