@<TRIPOS>MOLECULE
molecule
   39    41     1     0     0
SMALL
bcc


@<TRIPOS>ATOM
      1 C1           0.0000     0.0000     0.0000 ce         1 18X      -0.155900
      2 C2           1.4180     0.0000     0.0000 c          1 18X       0.676300
      3 C3          -0.7160     0.0010    -1.2390 cg         1 18X       0.224500
      4 N4          -1.2860    -0.0180    -2.2220 n1         1 18X      -0.371800
      5 O5           2.0270     0.0000     1.0540 o          1 18X      -0.571000
      6 O6           2.0920     0.0000    -1.1690 os         1 18X      -0.407900
      7 C7           3.5190     0.0000    -1.0950 c3         1 18X       0.138700
      8 C8          -0.6980    -0.0060     1.2100 c2         1 18X       0.231200
      9 N9          -2.0500    -0.0110     1.3460 n          1 18X      -0.266200
     10 C10         -2.6020    -0.0220     2.5500 c          1 18X       0.708500
     11 C11         -1.5820    -0.0260     3.6660 c3         1 18X      -0.193300
     12 S12          0.0110    -0.0140     2.7780 ss         1 18X      -0.029700
     13 C13         -2.8650    -0.0060     0.2070 ca         1 18X      -0.048400
     14 C14         -3.2650    -1.2060    -0.3660 ca         1 18X      -0.073000
     15 C15         -4.0660    -1.2040    -1.4890 ca         1 18X      -0.124000
     16 C16         -4.4780     0.0040    -2.0480 cp         1 18X       0.033000
     17 C17         -4.0760     1.2090    -1.4730 ca         1 18X      -0.151000
     18 C18         -3.2790     1.2030    -0.3470 ca         1 18X       0.163900
     19 C19         -5.3390     0.0080    -3.2560 cp         1 18X      -0.047000
     20 C20         -5.7450    -1.1960    -3.8300 ca         1 18X      -0.108000
     21 C21         -6.5470    -1.1860    -4.9520 ca         1 18X      -0.127500
     22 C22         -6.9490     0.0160    -5.5090 ca         1 18X      -0.117000
     23 C23         -6.5490     1.2130    -4.9430 ca         1 18X      -0.127500
     24 C24         -5.7510     1.2160    -3.8170 ca         1 18X      -0.108000
     25 F25         -2.8900     2.3700     0.2130 f          1 18X      -0.130900
     26 O26         -3.8000    -0.0270     2.7370 o          1 18X      -0.555500
     27 H1           3.8520    -0.8600    -0.5260 h1         1 18X       0.049033
     28 H2           3.8550     0.9070    -0.6070 h1         1 18X       0.049033
     29 H3           3.9330    -0.0460    -2.0950 h1         1 18X       0.049033
     30 H4          -2.0270    -0.3430     4.6020 h1         1 18X       0.138200
     31 H5          -1.0960     0.9380     3.7560 h1         1 18X       0.138200
     32 H6          -2.9460    -2.1460     0.0680 ha         1 18X       0.147000
     33 H7          -4.3770    -2.1410    -1.9350 ha         1 18X       0.147000
     34 H8          -4.3960     2.1490    -1.9060 ha         1 18X       0.157000
     35 H9          -5.4310    -2.1360    -3.3940 ha         1 18X       0.134000
     36 H10         -6.8630    -2.1210    -5.4000 ha         1 18X       0.133000
     37 H11         -7.5790     0.0210    -6.3900 ha         1 18X       0.132000
     38 H12         -6.8660     2.1520    -5.3810 ha         1 18X       0.133000
     39 H13         -5.4430     2.1540    -3.3710 ha         1 18X       0.134000
@<TRIPOS>BOND
     1    21    20 ar  
     2    21    22 ar  
     3    20    19 ar  
     4    22    23 ar  
     5    25    18 1   
     6    17    18 ar  
     7    17    16 ar  
     8    19    16 1   
     9    19    24 ar  
    10    23    24 ar  
    11    18    13 ar  
    12    16    15 ar  
    13    26    10 2   
    14    10     9 1   
    15    10    11 1   
    16    13     9 1   
    17    13    14 ar  
    18    15    14 ar  
    19     9     8 1   
    20    11    12 1   
    21     8    12 1   
    22     8     1 2   
    23     4     3 3   
    24     3     1 1   
    25     1     2 1   
    26     2     6 1   
    27     2     5 2   
    28     6     7 1   
    29     7    27 1   
    30     7    28 1   
    31     7    29 1   
    32    11    30 1   
    33    11    31 1   
    34    14    32 1   
    35    15    33 1   
    36    17    34 1   
    37    20    35 1   
    38    21    36 1   
    39    22    37 1   
    40    23    38 1   
    41    24    39 1   
@<TRIPOS>SUBSTRUCTURE
     1 18X         1 TEMP              0 ****  ****    0 ROOT
