@<TRIPOS>MOLECULE
18X
   39    41     1     0     0
SMALL
bcc


@<TRIPOS>ATOM
      1 C1           0.0530     0.0180    -0.0320 ce         1 18X      -0.149900
      2 C2           1.4980    -0.2090    -0.0360 c          1 18X       0.655300
      3 C3          -0.5370     0.4950    -1.2220 cg         1 18X       0.224500
      4 N4          -0.9760     0.8900    -2.2250 n1         1 18X      -0.366800
      5 O5           2.1800    -0.6160     0.9190 o          1 18X      -0.559000
      6 O6           2.1290     0.0620    -1.2160 os         1 18X      -0.409900
      7 C7           3.5420    -0.1590    -1.2420 c3         1 18X       0.126700
      8 C8          -0.6360    -0.2450     1.1290 c2         1 18X       0.232200
      9 N9          -2.0040    -0.0950     1.3550 n          1 18X      -0.303200
     10 C10         -2.4220    -0.4440     2.6720 c          1 18X       0.713500
     11 C11         -1.2610    -0.9020     3.5190 c3         1 18X      -0.195300
     12 S12          0.2020    -0.8170     2.5260 ss         1 18X       0.007300
     13 C13         -2.9460     0.3070     0.3710 ca         1 18X      -0.017400
     14 C14         -3.2290     1.6730     0.1710 ca         1 18X      -0.078000
     15 C15         -4.1810     2.0720    -0.7580 ca         1 18X      -0.129000
     16 C16         -4.8910     1.1260    -1.5120 cp         1 18X       0.021000
     17 C17         -4.6330    -0.2340    -1.3240 ca         1 18X      -0.154000
     18 C18         -3.6680    -0.6530    -0.3920 ca         1 18X       0.153900
     19 C19         -5.8940     1.5570    -2.4860 cp         1 18X      -0.055000
     20 C20         -7.1160     0.8780    -2.5920 ca         1 18X      -0.110000
     21 C21         -8.0700     1.2940    -3.5190 ca         1 18X      -0.131000
     22 C22         -7.8120     2.3850    -4.3500 ca         1 18X      -0.119000
     23 C23         -6.5960     3.0610    -4.2500 ca         1 18X      -0.131000
     24 C24         -5.6400     2.6530    -3.3220 ca         1 18X      -0.110000
     25 F25         -3.4450    -1.9780    -0.2330 f          1 18X      -0.129900
     26 O26         -3.5920    -0.3630     3.0470 o          1 18X      -0.540500
     27 H1           3.8260     0.1220    -2.2870 h1         1 18X       0.054367
     28 H2           4.0430     0.4940    -0.4890 h1         1 18X       0.054367
     29 H3           3.7630    -1.2320    -1.0300 h1         1 18X       0.054367
     30 H4          -1.4470    -1.9470     3.8700 h1         1 18X       0.124200
     31 H5          -1.1730    -0.2450     4.4200 h1         1 18X       0.124200
     32 H6          -2.6910     2.4370     0.7550 ha         1 18X       0.149000
     33 H7          -4.3850     3.1450    -0.9000 ha         1 18X       0.149000
     34 H8          -5.1730    -0.9930    -1.9100 ha         1 18X       0.160000
     35 H9          -7.3240     0.0190    -1.9360 ha         1 18X       0.139000
     36 H10         -9.0280     0.7590    -3.5950 ha         1 18X       0.135500
     37 H11         -8.5650     2.7100    -5.0820 ha         1 18X       0.134000
     38 H12         -6.3880     3.9190    -4.9070 ha         1 18X       0.135500
     39 H13         -4.6780     3.1830    -3.2520 ha         1 18X       0.139000
@<TRIPOS>BOND
     1     1     2 1   
     2     1     3 1   
     3     1     8 2   
     4     2     5 2   
     5     2     6 1   
     6     3     4 3   
     7     6     7 1   
     8     7    27 1   
     9     7    28 1   
    10     7    29 1   
    11     8     9 1   
    12     8    12 1   
    13     9    10 1   
    14     9    13 1   
    15    10    11 1   
    16    10    26 2   
    17    11    12 1   
    18    11    30 1   
    19    11    31 1   
    20    13    14 ar  
    21    13    18 ar  
    22    14    15 ar  
    23    14    32 1   
    24    15    16 ar  
    25    15    33 1   
    26    16    17 ar  
    27    16    19 1   
    28    17    18 ar  
    29    17    34 1   
    30    18    25 1   
    31    19    20 ar  
    32    19    24 ar  
    33    20    21 ar  
    34    20    35 1   
    35    21    22 ar  
    36    21    36 1   
    37    22    23 ar  
    38    22    37 1   
    39    23    24 ar  
    40    23    38 1   
    41    24    39 1   
@<TRIPOS>SUBSTRUCTURE
     1 18X         1 TEMP              0 ****  ****    0 ROOT
