@<TRIPOS>MOLECULE
18Z
   56    58     1     0     0
SMALL
bcc


@<TRIPOS>ATOM
      1 N01          0.0880     0.1740     0.5190 nz         1 18Z      -0.762400
      2 N02          3.4480    -0.5740    -5.0140 nu         1 18Z      -0.689600
      3 N03          4.0990    -1.4530    -0.3160 nu         1 18Z      -0.735600
      4 N04          8.2870    -0.2130    -2.1310 nb         1 18Z      -0.752000
      5 N05          7.9390     0.6710     0.1540 nb         1 18Z      -0.752000
      6 N06          9.6340     1.5500    -1.2680 nv         1 18Z      -0.934500
      7 N07          3.9910    -1.8210    -7.6510 n3         1 18Z      -0.742600
      8 N08          4.9360    -3.1080   -10.1110 n7         1 18Z      -0.820200
      9 N09          0.7830     0.6810    -4.4380 no         1 18Z       0.328200
     10 C10          1.2800     0.1660    -2.1040 ca         1 18Z       0.047000
     11 C11          2.0340    -0.3260    -1.0220 ca         1 18Z      -0.351600
     12 C12          3.3360    -0.9110    -1.3090 ca         1 18Z       0.356600
     13 C13          3.7550    -0.9540    -2.6530 ca         1 18Z      -0.356000
     14 C14          2.9890    -0.4840    -3.7490 ca         1 18Z       0.346600
     15 C15          1.6980     0.1090    -3.4190 ca         1 18Z      -0.285200
     16 C16          1.5470    -0.2510     0.3200 c          1 18Z       0.591700
     17 C17          5.4030    -2.0470    -0.5200 c3         1 18Z       0.279100
     18 C18          6.5170    -1.0830    -0.7230 ca         1 18Z      -0.467900
     19 C19          7.2610    -1.0420    -1.9210 ca         1 18Z       0.496200
     20 C20          8.6110     0.6510    -1.0760 ca         1 18Z       0.909900
     21 C21          6.9270    -0.1870     0.2900 ca         1 18Z       0.496200
     22 C22          4.7140    -1.1840    -5.3510 c3         1 18Z       0.192800
     23 C23          5.0170    -1.1530    -6.8680 c3         1 18Z       0.149800
     24 C24          4.1750    -3.2630    -7.7480 c3         1 18Z       0.161300
     25 C25          5.1830    -3.7230    -8.8230 c3         1 18Z       0.132800
     26 C26          4.7780    -1.6700   -10.0520 c3         1 18Z       0.132800
     27 C27          3.7700    -1.2350    -8.9670 c3         1 18Z       0.161300
     28 O28          2.0820    -0.4790     1.4050 o          1 18Z      -0.500100
     29 O29         -0.3180     1.0090    -4.0730 o          1 18Z      -0.202500
     30 O30          1.1370     0.8190    -5.5770 o          1 18Z      -0.202500
     31 HN01        -0.1510     0.0850     1.5140 hn         1 18Z       0.463467
     32 HN0A        -0.0390     1.1470     0.2320 hn         1 18Z       0.463467
     33 HN02         2.8780    -0.2800    -5.7870 hn         1 18Z       0.495800
     34 HN03         3.8710    -1.2440     0.6330 hn         1 18Z       0.455800
     35 HN06         9.9410     2.1110    -0.5110 hn         1 18Z       0.458300
     36 HN0B        10.1850     1.4980    -2.0900 hn         1 18Z       0.458300
     37 HN08         5.6540    -3.3580   -10.7640 hn         1 18Z       0.376800
     38 H10          0.2960     0.6430    -1.9200 ha         1 18Z       0.145000
     39 H13          4.7590    -1.3610    -2.8650 ha         1 18Z       0.166000
     40 H17          5.6130    -2.6620     0.4060 h1         1 18Z       0.074200
     41 H17A         5.3460    -2.7590    -1.3940 h1         1 18Z       0.074200
     42 H19          7.0290    -1.7250    -2.7610 h4         1 18Z       0.021600
     43 H21          6.4150    -0.1640     1.2700 h4         1 18Z       0.021600
     44 H22          5.5450    -0.6270    -4.8280 h1         1 18Z       0.059700
     45 H22A         4.7180    -2.2520    -4.9870 h1         1 18Z       0.059700
     46 H23          5.1050    -0.0770    -7.1910 h1         1 18Z       0.058200
     47 H23A         6.0350    -1.6270    -6.9870 h1         1 18Z       0.058200
     48 H24          4.5120    -3.6670    -6.7550 h1         1 18Z       0.062950
     49 H24A         3.1640    -3.6990    -7.9850 h1         1 18Z       0.062950
     50 H25          5.0780    -4.8360    -8.9530 h1         1 18Z       0.037200
     51 H25A         6.2290    -3.5190    -8.4440 h1         1 18Z       0.037200
     52 H26          5.7570    -1.1380    -9.8630 h1         1 18Z       0.037200
     53 H26A         4.3900    -1.3300   -11.0520 h1         1 18Z       0.037200
     54 H27          2.7350    -1.5510    -9.2820 h1         1 18Z       0.062950
     55 H27A         3.7870    -0.1130    -8.8960 h1         1 18Z       0.062950
     56 H013        -0.5310    -0.4220    -0.0350 hn         1 18Z       0.463467
@<TRIPOS>BOND
     1     1    16 1   
     2     1    31 1   
     3     1    32 1   
     4     1    56 1   
     5     2    14 1   
     6     2    22 1   
     7     2    33 1   
     8     3    12 1   
     9     3    17 1   
    10     3    34 1   
    11     4    19 ar  
    12     4    20 ar  
    13     5    20 ar  
    14     5    21 ar  
    15     6    20 1   
    16     6    35 1   
    17     6    36 1   
    18     7    23 1   
    19     7    24 1   
    20     7    27 1   
    21     8    25 1   
    22     8    26 1   
    23     8    37 1   
    24     9    15 1   
    25     9    29 1   
    26     9    30 1   
    27    10    11 ar  
    28    10    15 ar  
    29    10    38 1   
    30    11    12 ar  
    31    11    16 1   
    32    12    13 ar  
    33    13    14 ar  
    34    13    39 1   
    35    14    15 ar  
    36    16    28 2   
    37    17    18 1   
    38    17    40 1   
    39    17    41 1   
    40    18    19 ar  
    41    18    21 ar  
    42    19    42 1   
    43    21    43 1   
    44    22    23 1   
    45    22    44 1   
    46    22    45 1   
    47    23    46 1   
    48    23    47 1   
    49    24    25 1   
    50    24    48 1   
    51    24    49 1   
    52    25    50 1   
    53    25    51 1   
    54    26    27 1   
    55    26    52 1   
    56    26    53 1   
    57    27    54 1   
    58    27    55 1   
@<TRIPOS>SUBSTRUCTURE
     1 18Z         1 TEMP              0 ****  ****    0 ROOT
