@<TRIPOS>MOLECULE
molecule
   56    58     1     0     0
SMALL
bcc


@<TRIPOS>ATOM
      1 N01          0.0000     0.0000     0.0000 nz         1 18Z      -0.673400
      2 N02          4.1470     0.0040    -4.8900 nu         1 18Z      -0.755600
      3 N03          4.1810     0.2450    -0.0850 nu         1 18Z      -0.766600
      4 N04          7.0200    -0.4320     3.2210 nb         1 18Z      -0.792000
      5 N05          6.6140     1.8450     3.2260 nb         1 18Z      -0.792000
      6 N06          7.5020     0.8240     5.1320 nv         1 18Z      -0.968500
      7 N07          7.5460     0.4070    -6.3820 n3         1 18Z      -0.728600
      8 N08         10.2730    -0.3500    -6.6950 n7         1 18Z      -0.820200
      9 N09          1.3350    -0.2470    -4.9430 no         1 18Z       0.296200
     10 C10          1.3920    -0.1200    -2.4840 ca         1 18Z       0.024000
     11 C11          2.0840     0.0010    -1.2740 ca         1 18Z      -0.352600
     12 C12          3.4840     0.1240    -1.2810 ca         1 18Z       0.337600
     13 C13          4.1660     0.1240    -2.4870 ca         1 18Z      -0.318000
     14 C14          3.4630     0.0040    -3.6790 ca         1 18Z       0.322600
     15 C15          2.0740    -0.1190    -3.6660 ca         1 18Z      -0.244200
     16 C16          1.3480     0.0000     0.0000 c          1 18Z       0.522700
     17 C17          5.6230     0.5020    -0.1000 c3         1 18Z       0.288100
     18 C18          6.1320     0.5890     1.3160 ca         1 18Z      -0.473900
     19 C19          6.5800    -0.5440     1.9780 ca         1 18Z       0.529700
     20 C20          7.0360     0.7430     3.8310 ca         1 18Z       0.962900
     21 C21          6.1610     1.8030     1.9840 ca         1 18Z       0.529700
     22 C22          5.5950     0.2300    -4.9130 c3         1 18Z       0.205800
     23 C23          6.0950     0.1800    -6.3580 c3         1 18Z       0.149800
     24 C24          8.1010     0.1340    -7.7150 c3         1 18Z       0.159300
     25 C25          9.5960     0.4580    -7.7190 c3         1 18Z       0.159300
     26 C26          9.7180    -0.0770    -5.3610 c3         1 18Z       0.159300
     27 C27          8.2220    -0.4010    -5.3570 c3         1 18Z       0.159300
     28 O28          1.9560     0.0000     1.0540 o          1 18Z      -0.487100
     29 O29          0.2580     0.3030    -5.0800 o          1 18Z      -0.187500
     30 O30          1.8060    -0.9020    -5.8550 o          1 18Z      -0.187500
     31 HN01        -0.3340     0.0500     0.9420 hn         1 18Z       0.476133
     32 HN0A        -0.3340     0.7910    -0.5140 hn         1 18Z       0.476133
     33 HN02         3.6460    -0.1140    -5.7480 hn         1 18Z       0.481800
     34 HN03         3.6900     0.1990     0.7860 hn         1 18Z       0.479800
     35 HN06         7.8200    -0.0010     5.6020 hn         1 18Z       0.461300
     36 HN0B         7.5180     1.7060     5.6040 hn         1 18Z       0.461300
     37 HN08        11.2520    -0.1420    -6.6990 hn         1 18Z       0.364800
     38 H10          0.3120    -0.2140    -2.4830 ha         1 18Z       0.131000
     39 H13          5.2490     0.1510    -2.4970 ha         1 18Z       0.176000
     40 H17          6.1280    -0.3050    -0.6160 h1         1 18Z       0.059200
     41 H17A         5.8180     1.4360    -0.6120 h1         1 18Z       0.059200
     42 H19          6.5700    -1.5080     1.4850 h4         1 18Z       0.031600
     43 H21          5.8180     2.7070     1.4950 h4         1 18Z       0.031600
     44 H22          5.8150     1.2020    -4.4880 h1         1 18Z       0.063200
     45 H22A         6.0900    -0.5390    -4.3330 h1         1 18Z       0.063200
     46 H23          5.8740    -0.7920    -6.7830 h1         1 18Z       0.050700
     47 H23A         5.5990     0.9490    -6.9390 h1         1 18Z       0.050700
     48 H24          7.5970     0.7520    -8.4480 h1         1 18Z       0.042450
     49 H24A         7.9580    -0.9120    -7.9560 h1         1 18Z       0.042450
     50 H25         10.0120     0.2270    -8.6920 h1         1 18Z       0.044450
     51 H25A         9.7380     1.5090    -7.4990 h1         1 18Z       0.044450
     52 H26         10.2230    -0.6940    -4.6280 h1         1 18Z       0.044450
     53 H26A         9.8600     0.9700    -5.1200 h1         1 18Z       0.044450
     54 H27          8.0810    -1.4530    -5.5770 h1         1 18Z       0.042450
     55 H27A         7.8060    -0.1710    -4.3840 h1         1 18Z       0.042450
     56 H013        -0.3340    -0.8390    -0.4310 hn         1 18Z       0.476133
@<TRIPOS>BOND
     1     1    16 1
     2     1    31 1
     3     1    32 1
     4     2    14 1
     5     2    22 1
     6     2    33 1
     7     3    12 1
     8     3    17 1
     9     3    34 1
    10     4    19 ar
    11     4    20 ar
    12     5    20 ar
    13     5    21 ar
    14     6    20 1
    15     6    35 1
    16     6    36 1
    17     7    23 1
    18     7    24 1
    19     7    27 1
    20     8    25 1
    21     8    26 1
    22     8    37 1
    23     9    15 1
    24     9    29 1
    25     9    30 1
    26    10    11 ar
    27    10    15 ar
    28    10    38 1
    29    11    12 ar
    30    11    16 1
    31    12    13 ar
    32    13    14 ar
    33    13    39 1
    34    14    15 ar
    35    16    28 2
    36    17    18 1
    37    17    40 1
    38    17    41 1
    39    18    19 ar
    40    18    21 ar
    41    19    42 1
    42    21    43 1
    43    22    23 1
    44    22    44 1
    45    22    45 1
    46    23    46 1
    47    23    47 1
    48    24    25 1
    49    24    48 1
    50    24    49 1
    51    25    50 1
    52    25    51 1
    53    26    27 1
    54    26    52 1
    55    26    53 1
    56    27    54 1
    57    27    55 1
    58    56     1 1
@<TRIPOS>SUBSTRUCTURE
     1 18Z         1 TEMP              0 ****  ****    0 ROOT
