@<TRIPOS>MOLECULE
molecule
   77    79     1     0     0
SMALL
bcc


@<TRIPOS>ATOM
      1 C4           0.0000     0.0000     0.0000 ca         1 190       0.075100
      2 C3           1.3870     0.0000     0.0000 ca         1 190      -0.089300
      3 C8           2.1420     0.0000    -1.3050 c3         1 190      -0.049300
      4 C2           2.0770     0.0000     1.1980 ca         1 190      -0.126500
      5 C1           1.3850     0.0000     2.3950 ca         1 190      -0.123000
      6 C6           0.0020    -0.0000     2.3970 ca         1 190      -0.126500
      7 C5          -0.6910     0.0060     1.2030 ca         1 190      -0.089300
      8 C7          -2.1980     0.0060     1.2060 c3         1 190      -0.049300
      9 O9          -0.6800     0.0000    -1.1760 os         1 190      -0.284900
     10 C10         -0.8870    -1.3680    -1.5330 c3         1 190       0.054400
     11 C11         -1.6410    -1.4380    -2.8370 c          1 190       0.650100
     12 O12         -1.9690    -0.4180    -3.4030 o          1 190      -0.562100
     13 N13         -1.9500    -2.6360    -3.3720 ns         1 190      -0.587900
     14 C14         -2.6830    -2.7040    -4.6390 c3         1 190       0.116700
     15 C16         -1.6970    -2.6020    -5.8050 c3         1 190      -0.045100
     16 C15         -1.0450    -1.2440    -5.7940 ca         1 190      -0.069300
     17 C42          0.1270    -1.0450    -5.0880 ca         1 190      -0.111000
     18 C43          0.7240     0.2010    -5.0780 ca         1 190      -0.116000
     19 C44          0.1530     1.2490    -5.7750 ca         1 190      -0.096000
     20 C45         -1.0200     1.0500    -6.4810 ca         1 190      -0.003900
     21 C46         -1.6160    -0.1980    -6.4950 ca         1 190      -0.090000
     22 C23         -3.4360    -4.0340    -4.7220 c3         1 190       0.109100
     23 O38         -2.4970    -5.1100    -4.7690 oh         1 190      -0.603800
     24 C24         -4.2990    -4.0530    -5.9860 c3         1 190      -0.074400
     25 C25         -5.1450    -5.3270    -6.0050 c3         1 190      -0.183900
     26 S30         -6.3190    -5.2950    -4.6220 sy         1 190       1.192300
     27 O39         -7.2630    -4.2420    -4.7600 o          1 190      -0.622300
     28 O40         -5.6790    -5.5790    -3.3860 o          1 190      -0.622300
     29 C31         -7.2990    -6.7350    -4.8940 ca         1 190      -0.312500
     30 C32         -6.9600    -7.9270    -4.2810 ca         1 190      -0.004500
     31 C33         -7.7270    -9.0570    -4.4940 ca         1 190      -0.191000
     32 C34         -8.8360    -8.9930    -5.3200 ca         1 190       0.186900
     33 F37         -9.5880   -10.0970    -5.5290 f          1 190      -0.132900
     34 C35         -9.1750    -7.7990    -5.9330 ca         1 190      -0.191000
     35 C36         -8.4090    -6.6700    -5.7140 ca         1 190      -0.004500
     36 C26         -5.9140    -5.4090    -7.3240 c3         1 190      -0.059400
     37 C27         -4.9270    -5.5840    -8.4810 c3         1 190      -0.069700
     38 C28         -4.2160    -6.9320    -8.3440 c3         1 190      -0.090600
     39 C29         -5.6850    -5.5410    -9.8100 c3         1 190      -0.090600
     40 H81          1.6520     0.6650    -2.0060 hc         1 190       0.048200
     41 H82          2.1610    -1.0040    -1.7110 hc         1 190       0.048200
     42 H83          3.1570     0.3400    -1.1350 hc         1 190       0.048200
     43 H2           3.1600     0.0000     1.1990 ha         1 190       0.133500
     44 H1           1.9280    -0.0020     3.3330 ha         1 190       0.131000
     45 H6          -0.5370     0.0020     3.3360 ha         1 190       0.133500
     46 H71         -2.5610     0.5920     0.3700 hc         1 190       0.048200
     47 H72         -2.5570     0.4380     2.1320 hc         1 190       0.048200
     48 H73         -2.5590    -1.0120     1.1170 hc         1 190       0.048200
     49 H101        -1.4600    -1.8610    -0.7580 h1         1 190       0.049700
     50 H102         0.0710    -1.8610    -1.6430 h1         1 190       0.049700
     51 H13         -1.7180    -3.4770    -2.8830 hn         1 190       0.312500
     52 H14         -3.3910    -1.8850    -4.6910 h1         1 190       0.090700
     53 H161        -2.2280    -2.7410    -6.7390 hc         1 190       0.060700
     54 H162        -0.9380    -3.3680    -5.7040 hc         1 190       0.060700
     55 H42          0.5760    -1.8660    -4.5420 ha         1 190       0.125000
     56 H43          1.6430     0.3560    -4.5240 ha         1 190       0.130000
     57 H44          0.6220     2.2250    -5.7660 ha         1 190       0.141000
     58 H46         -2.5340    -0.3540    -7.0480 ha         1 190       0.136000
     59 H23         -4.0700    -4.1450    -3.8500 h1         1 190       0.056700
     60 H38         -2.5790    -5.6330    -3.9890 ho         1 190       0.410000
     61 H241        -3.6590    -4.0320    -6.8600 hc         1 190       0.077200
     62 H242        -4.9490    -3.1870    -5.9920 hc         1 190       0.077200
     63 H25         -4.4990    -6.1910    -5.9100 h1         1 190       0.118700
     64 H32         -6.0920    -7.9750    -3.6340 ha         1 190       0.157000
     65 H33         -7.4620    -9.9910    -4.0130 ha         1 190       0.152500
     66 H35        -10.0440    -7.7480    -6.5780 ha         1 190       0.152500
     67 H36         -8.6740    -5.7350    -6.1930 ha         1 190       0.157000
     68 H261        -6.5910    -6.2540    -7.2960 hc         1 190       0.057200
     69 H262        -6.4810    -4.4970    -7.4690 hc         1 190       0.057200
     70 H27         -4.1960    -4.7860    -8.4560 hc         1 190       0.054700
     71 H281        -4.9210    -7.6800    -8.0030 hc         1 190       0.037700
     72 H282        -3.8120    -7.2270    -9.3050 hc         1 190       0.037700
     73 H283        -3.4090    -6.8430    -7.6260 hc         1 190       0.037700
     74 H291        -6.2910    -4.6430    -9.8510 hc         1 190       0.037700
     75 H292        -6.3240    -6.4120    -9.8900 hc         1 190       0.037700
     76 H293        -4.9760    -5.5350   -10.6290 hc         1 190       0.037700
     77 Br17        -1.8030     2.4830    -7.4340 br         1 190      -0.105100
@<TRIPOS>BOND
     1     1     2 ar  
     2     1     7 ar  
     3     1     9 1   
     4     2     3 1   
     5     2     4 ar  
     6     3    40 1   
     7     3    41 1   
     8     3    42 1   
     9     4     5 ar  
    10     4    43 1   
    11     5     6 ar  
    12     5    44 1   
    13     6     7 ar  
    14     6    45 1   
    15     7     8 1   
    16     8    46 1   
    17     8    47 1   
    18     8    48 1   
    19     9    10 1   
    20    10    11 1   
    21    10    49 1   
    22    10    50 1   
    23    11    12 2   
    24    11    13 1   
    25    13    14 1   
    26    13    51 1   
    27    14    15 1   
    28    14    22 1   
    29    14    52 1   
    30    15    16 1   
    31    15    53 1   
    32    15    54 1   
    33    16    17 ar  
    34    16    21 ar  
    35    17    18 ar  
    36    17    55 1   
    37    18    19 ar  
    38    18    56 1   
    39    19    20 ar  
    40    19    57 1   
    41    77    20 1   
    42    20    21 ar  
    43    21    58 1   
    44    22    23 1   
    45    22    24 1   
    46    22    59 1   
    47    23    60 1   
    48    24    25 1   
    49    24    61 1   
    50    24    62 1   
    51    25    26 1   
    52    25    36 1   
    53    25    63 1   
    54    26    27 2   
    55    26    28 2   
    56    26    29 1   
    57    29    30 ar  
    58    29    35 ar  
    59    30    31 ar  
    60    30    64 1   
    61    31    32 ar  
    62    31    65 1   
    63    32    33 1   
    64    32    34 ar  
    65    34    35 ar  
    66    34    66 1   
    67    35    67 1   
    68    36    37 1   
    69    36    68 1   
    70    36    69 1   
    71    37    38 1   
    72    37    39 1   
    73    37    70 1   
    74    38    71 1   
    75    38    72 1   
    76    38    73 1   
    77    39    74 1   
    78    39    75 1   
    79    39    76 1   
@<TRIPOS>SUBSTRUCTURE
     1 190         1 TEMP              0 ****  ****    0 ROOT
