@<TRIPOS>MOLECULE
190
   78    80     1     0     0
SMALL
bcc


@<TRIPOS>ATOM
      1 C4          -0.2310    -0.2030     0.2490 ca         1 190       0.045100
      2 C3           0.7770     0.6850    -0.1650 ca         1 190      -0.067300
      3 C8           0.8730     1.1760    -1.5580 c3         1 190      -0.054300
      4 C2           1.7130     1.1080     0.7860 ca         1 190      -0.119500
      5 C1           1.6410     0.6530     2.1020 ca         1 190      -0.097000
      6 C6           0.6360    -0.2290     2.4920 ca         1 190      -0.119500
      7 C5          -0.3180    -0.6750     1.5700 ca         1 190      -0.067300
      8 C7          -1.3950    -1.5960     1.9990 c3         1 190      -0.054300
      9 O9          -1.2530    -0.5570    -0.6420 os         1 190      -0.371900
     10 C10         -0.8750    -1.5790    -1.5610 c3         1 190       0.058400
     11 C11         -1.7140    -1.4530    -2.8180 c          1 190       0.537100
     12 O12         -1.5780    -2.1420    -3.8190 o          1 190      -0.428100
     13 N13         -2.7920    -0.4090    -2.8130 ny         1 190      -0.662800
     14 C14         -3.6740    -0.4020    -4.0340 c3         1 190       0.096500
     15 C16         -5.0120     0.2810    -3.7170 c3         1 190      -0.049100
     16 C15         -5.6890    -0.3420    -2.5470 ca         1 190      -0.152300
     17 C42         -6.4160    -1.5270    -2.7180 ca         1 190      -0.099000
     18 C43         -7.0730    -2.0980    -1.6290 ca         1 190      -0.122000
     19 C44         -7.0100    -1.4990    -0.3720 ca         1 190      -0.082000
     20 C45         -6.2850    -0.3140    -0.1990 ca         1 190      -0.030900
     21 C46         -5.6300     0.2660    -1.2880 ca         1 190      -0.129000
     22 C23         -2.9260     0.2820    -5.2100 c3         1 190       0.125100
     23 O38         -2.7110     1.6420    -4.8890 oh         1 190      -0.603800
     24 C24         -3.6380     0.0790    -6.5420 c3         1 190      -0.066400
     25 C25         -3.5070    -1.3420    -7.0540 c3         1 190      -0.263900
     26 S30         -5.0360    -2.1910    -7.1240 sy         1 190       1.375300
     27 O39         -5.6070    -1.9900    -5.8430 o          1 190      -0.660800
     28 O40         -4.7740    -3.5090    -7.5080 o          1 190      -0.660800
     29 C31         -5.8950    -1.3750    -8.2770 ca         1 190      -0.437500
     30 C32         -6.8380    -0.3960    -7.9230 ca         1 190       0.012500
     31 C33         -7.6010     0.2580    -8.8770 ca         1 190      -0.191500
     32 C34         -7.4310    -0.0700   -10.2390 ca         1 190       0.219900
     33 F37         -8.1640     0.5590   -11.1780 f          1 190      -0.107900
     34 C35         -6.4990    -1.0590   -10.6170 ca         1 190      -0.191500
     35 C36         -5.7510    -1.6950    -9.6370 ca         1 190       0.012500
     36 C26         -2.7530    -1.4080    -8.3710 c3         1 190      -0.056400
     37 C27         -1.2760    -1.0630    -8.2460 c3         1 190      -0.062700
     38 C28         -0.6800    -0.8800    -9.6280 c3         1 190      -0.095600
     39 C29         -0.5110    -2.1280    -7.4860 c3         1 190      -0.095600
     40 Br17        -6.1960     0.5010     1.4810 br         1 190      -0.052100
     41 H81         -0.0820     1.0050    -2.1140 hc         1 190       0.050200
     42 H82          1.6990     0.6480    -2.0980 hc         1 190       0.050200
     43 H83          1.0950     2.2730    -1.5720 hc         1 190       0.050200
     44 H2           2.5090     1.8080     0.4860 ha         1 190       0.152500
     45 H1           2.3860     0.9950     2.8390 ha         1 190       0.154000
     46 H6           0.5850    -0.5820     3.5340 ha         1 190       0.152500
     47 H71         -1.0240    -2.3040     2.7810 hc         1 190       0.050200
     48 H72         -2.2450    -1.0090     2.4310 hc         1 190       0.050200
     49 H73         -1.7840    -2.1890     1.1350 hc         1 190       0.050200
     50 H101        -1.0850    -2.5870    -1.1030 h1         1 190       0.117200
     51 H102         0.2090    -1.4990    -1.8510 h1         1 190       0.117200
     52 H13         -2.3370     0.5140    -2.7250 hn         1 190       0.479800
     53 H14         -3.8850    -1.4810    -4.3120 hx         1 190       0.138700
     54 H161        -5.6630     0.1440    -4.6260 hc         1 190       0.088200
     55 H162        -4.8560     1.3800    -3.5510 hc         1 190       0.088200
     56 H42         -6.4710    -1.9950    -3.7190 ha         1 190       0.184000
     57 H43         -7.6530    -3.0250    -1.7640 ha         1 190       0.158000
     58 H44         -7.5390    -1.9580     0.4800 ha         1 190       0.164000
     59 H46         -5.0940     1.2210    -1.1650 ha         1 190       0.143000
     60 H23         -1.8820    -0.1540    -5.2950 h1         1 190       0.095700
     61 H38         -3.4550     2.1610    -5.2220 ho         1 190       0.427000
     62 H241        -3.1840     0.8010    -7.2760 hc         1 190       0.071200
     63 H242        -4.7230     0.3560    -6.4410 hc         1 190       0.071200
     64 H25         -2.8830    -1.9340    -6.3160 h1         1 190       0.117700
     65 H32         -6.9900    -0.1600    -6.8530 ha         1 190       0.157000
     66 H33         -8.3420     1.0190    -8.5890 ha         1 190       0.171500
     67 H35         -6.3820    -1.3210   -11.6800 ha         1 190       0.171500
     68 H36         -5.0350    -2.4860    -9.9310 ha         1 190       0.157000
     69 H261        -3.2320    -0.7060    -9.1050 hc         1 190       0.061700
     70 H262        -2.8450    -2.4520    -8.7840 hc         1 190       0.061700
     71 H27         -1.1820    -0.0900    -7.6860 hc         1 190       0.038700
     72 H281        -1.2120    -0.0690   -10.1810 hc         1 190       0.041533
     73 H282         0.3990    -0.6050    -9.5480 hc         1 190       0.041533
     74 H283        -0.7610    -1.8250   -10.2180 hc         1 190       0.041533
     75 H291         0.5850    -1.9120    -7.5240 hc         1 190       0.041533
     76 H292        -0.8230    -2.1570    -6.4130 hc         1 190       0.041533
     77 H293        -0.6860    -3.1360    -7.9340 hc         1 190       0.041533
     78 H132        -3.3730    -0.5500    -1.9690 hn         1 190       0.479800
@<TRIPOS>BOND
     1     1     2 ar  
     2     1     7 ar  
     3     1     9 1   
     4     2     3 1   
     5     2     4 ar  
     6     3    41 1   
     7     3    42 1   
     8     3    43 1   
     9     4     5 ar  
    10     4    44 1   
    11     5     6 ar  
    12     5    45 1   
    13     6     7 ar  
    14     6    46 1   
    15     7     8 1   
    16     8    47 1   
    17     8    48 1   
    18     8    49 1   
    19     9    10 1   
    20    10    11 1   
    21    10    50 1   
    22    10    51 1   
    23    11    12 2   
    24    11    13 1   
    25    13    14 1   
    26    13    52 1   
    27    13    78 1   
    28    14    15 1   
    29    14    22 1   
    30    14    53 1   
    31    15    16 1   
    32    15    54 1   
    33    15    55 1   
    34    16    17 ar  
    35    16    21 ar  
    36    17    18 ar  
    37    17    56 1   
    38    18    19 ar  
    39    18    57 1   
    40    19    20 ar  
    41    19    58 1   
    42    20    21 ar  
    43    20    40 1   
    44    21    59 1   
    45    22    23 1   
    46    22    24 1   
    47    22    60 1   
    48    23    61 1   
    49    24    25 1   
    50    24    62 1   
    51    24    63 1   
    52    25    26 1   
    53    25    36 1   
    54    25    64 1   
    55    26    27 2   
    56    26    28 2   
    57    26    29 1   
    58    29    30 ar  
    59    29    35 ar  
    60    30    31 ar  
    61    30    65 1   
    62    31    32 ar  
    63    31    66 1   
    64    32    33 1   
    65    32    34 ar  
    66    34    35 ar  
    67    34    67 1   
    68    35    68 1   
    69    36    37 1   
    70    36    69 1   
    71    36    70 1   
    72    37    38 1   
    73    37    39 1   
    74    37    71 1   
    75    38    72 1   
    76    38    73 1   
    77    38    74 1   
    78    39    75 1   
    79    39    76 1   
    80    39    77 1   
@<TRIPOS>SUBSTRUCTURE
     1 190         1 TEMP              0 ****  ****    0 ROOT
