@<TRIPOS>MOLECULE
194
   43    45     1     0     0
SMALL
bcc


@<TRIPOS>ATOM
      1 C1           1.3270    -0.3240     2.0990 ca         1 194      -0.126000
      2 C2           1.5670    -0.7580     0.7970 ca         1 194      -0.198000
      3 C3           1.4620     0.1770    -0.2340 ca         1 194       0.007100
      4 C4           1.0700     1.4970     0.0160 ca         1 194      -0.158000
      5 C5           0.8380     1.9210     1.3320 ca         1 194      -0.080600
      6 C6           1.0070     1.0110     2.3870 ca         1 194      -0.098600
      7 C10          0.9710     1.3660     3.8700 c          1 194       0.928200
      8 O1           1.9650     1.9960     4.3380 o          1 194      -0.839300
      9 O2           0.0220     0.9270     4.5750 o          1 194      -0.839300
     10 C20          0.4770     3.3980     1.4790 c          1 194       0.929200
     11 O5           1.4310     4.2160     1.6310 o          1 194      -0.836300
     12 O4          -0.7300     3.7380     1.3450 o          1 194      -0.836300
     13 O3           1.6800    -0.1660    -1.5810 os         1 194      -0.269200
     14 C31          2.8470    -0.8640    -1.8520 ca         1 194       0.084100
     15 C34          4.1550    -0.4060    -1.5010 ca         1 194       0.056600
     16 C35          5.2510    -1.1540    -1.9840 ca         1 194      -0.154000
     17 C36          5.0610    -2.2900    -2.7650 ca         1 194      -0.144000
     18 C37          3.7810    -2.7230    -3.0950 ca         1 194      -0.162000
     19 C38          2.6760    -2.0130    -2.6350 ca         1 194      -0.136000
     20 N1           4.3130     0.7520    -0.7290 ns         1 194      -0.453100
     21 C44          5.4470     1.1180    -0.0110 c          1 194       0.689700
     22 O6           6.5590     0.5720    -0.1740 o          1 194      -0.628100
     23 C51          5.2870     2.2540     0.9440 ca         1 194      -0.180600
     24 C53          6.3420     3.1660     1.0560 ca         1 194      -0.050000
     25 C54          6.2180     4.2360     1.9550 ca         1 194      -0.206200
     26 C55          5.0530     4.4030     2.7340 ca         1 194      -0.067000
     27 C56          4.0220     3.4780     2.6200 ca         1 194      -0.057000
     28 C57          4.1420     2.4010     1.7340 ca         1 194      -0.025000
     29 N2           7.3280     5.2040     2.0790 no         1 194       0.315200
     30 O7           8.2980     5.0960     1.3690 o          1 194      -0.248500
     31 O8           7.2620     6.0930     2.8910 o          1 194      -0.248500
     32 H1           1.4030    -1.0380     2.9330 ha         1 194       0.127000
     33 H2           1.8490    -1.7950     0.5820 ha         1 194       0.111000
     34 H4           0.9430     2.2020    -0.8170 ha         1 194       0.138000
     35 H35          6.2800    -0.8420    -1.7410 ha         1 194       0.166000
     36 H36          5.9390    -2.8460    -3.1220 ha         1 194       0.113000
     37 H37          3.6380    -3.6220    -3.7100 ha         1 194       0.112000
     38 H38          1.6530    -2.3330    -2.8800 ha         1 194       0.138000
     39 HN1          3.4680     1.2510    -0.5160 hn         1 194       0.355500
     40 H53          7.2530     3.0310     0.4510 ha         1 194       0.161000
     41 H55          4.9590     5.2600     3.4200 ha         1 194       0.160000
     42 H56          3.0640     3.5720     3.1930 ha         1 194       0.260000
     43 H57          3.2970     1.6860     1.6910 ha         1 194       0.190000
@<TRIPOS>BOND
     1     1     2 ar  
     2     1     6 ar  
     3     1    32 1   
     4     2     3 ar  
     5     2    33 1   
     6     3     4 ar  
     7     3    13 1   
     8     4     5 ar  
     9     4    34 1   
    10     5     6 ar  
    11     5    10 1   
    12     6     7 1   
    13     7     8 1   
    14     7     9 1   
    15    10    11 1   
    16    10    12 1   
    17    13    14 1   
    18    14    15 ar  
    19    14    19 ar  
    20    15    16 ar  
    21    15    20 1   
    22    16    17 ar  
    23    16    35 1   
    24    17    18 ar  
    25    17    36 1   
    26    18    19 ar  
    27    18    37 1   
    28    19    38 1   
    29    20    21 1   
    30    20    39 1   
    31    21    22 2   
    32    21    23 1   
    33    23    24 ar  
    34    23    28 ar  
    35    24    25 ar  
    36    24    40 1   
    37    25    26 ar  
    38    25    29 1   
    39    26    27 ar  
    40    26    41 1   
    41    27    28 ar  
    42    27    42 1   
    43    28    43 1   
    44    29    30 1   
    45    29    31 1   
@<TRIPOS>SUBSTRUCTURE
     1 194         1 TEMP              0 ****  ****    0 ROOT
