@<TRIPOS>MOLECULE
194
   43    45     1     0     0
SMALL
bcc


@<TRIPOS>ATOM
      1 C1           0.0000     0.0000     0.0000 ca         1 194      -0.108000
      2 C2           1.3750     0.0000     0.0000 ca         1 194      -0.196000
      3 C3           2.0670     0.0000     1.1910 ca         1 194      -0.002900
      4 C4           1.4380    -0.1250     2.4020 ca         1 194      -0.126000
      5 C5           0.0660    -0.0840     2.4230 ca         1 194      -0.027600
      6 C6          -0.6530     0.0670     1.2260 ca         1 194      -0.047600
      7 C10         -2.0930     0.4840     1.1730 c          1 194       1.002200
      8 O1          -2.9160    -0.1310     0.5760 o          1 194      -0.891800
      9 O2          -2.4120     1.6580     1.7790 o          1 194      -0.891800
     10 C20         -0.5450    -0.1500     3.7320 c          1 194       1.008200
     11 O5          -1.1260    -1.3170     4.1430 o          1 194      -0.896300
     12 O4          -0.4640     0.7970     4.4200 o          1 194      -0.896300
     13 O3           3.4220     0.1160     1.2170 os         1 194      -0.211200
     14 C31          4.0740    -0.8100     0.4310 ca         1 194       0.170100
     15 C34          5.3990    -0.5170     0.0940 ca         1 194      -0.184400
     16 C35          6.1550    -1.4200    -0.6890 ca         1 194      -0.045000
     17 C36          5.5300    -2.5410    -1.2280 ca         1 194      -0.170000
     18 C37          4.2000    -2.8190    -0.9250 ca         1 194      -0.058000
     19 C38          3.5070    -1.9900    -0.0120 ca         1 194      -0.156000
     20 N1           5.8730     0.7100     0.5570 ns         1 194      -0.012100
     21 C44          5.9140     1.7750    -0.2740 c          1 194       0.587700
     22 O6           5.9480     1.5610    -1.4640 o          1 194      -0.642100
     23 C51          5.9300     3.2060     0.1830 ca         1 194      -0.143600
     24 C53          5.7800     4.2470    -0.7580 ca         1 194       0.069000
     25 C54          5.8850     5.5980    -0.3230 ca         1 194      -0.487200
     26 C55          6.1700     5.8940     1.0080 ca         1 194       0.001000
     27 C56          6.2740     4.8770     1.9240 ca         1 194      -0.128000
     28 C57          6.1670     3.5690     1.4890 ca         1 194      -0.012000
     29 N2           5.5320     6.6870    -1.2070 no         1 194       1.037200
     30 O7           4.9650     6.4820    -2.2170 o          1 194      -0.459000
     31 O8           5.6740     7.9160    -0.8420 o          1 194      -0.459000
     32 H1          -0.5510     0.0590    -0.9310 ha         1 194       0.102000
     33 H2           1.9140     0.0250    -0.9390 ha         1 194       0.086000
     34 H4           2.0050    -0.1810     3.3240 ha         1 194       0.107000
     35 H35          7.2340    -1.3270    -0.7340 ha         1 194       0.090000
     36 H36          6.0820    -3.2020    -1.8860 ha         1 194       0.091000
     37 H37          3.7450    -3.7380    -1.2760 ha         1 194       0.095000
     38 H38          2.5300    -2.2870     0.3500 ha         1 194       0.154000
     39 HN1          6.2320     0.7880     1.4880 hn         1 194       0.155500
     40 H53          5.5580     4.0210    -1.7940 ha         1 194       0.147000
     41 H55          6.2500     6.9250     1.3310 ha         1 194       0.130000
     42 H56          6.4780     5.0930     2.9650 ha         1 194       0.116000
     43 H57          6.2520     2.7800     2.2270 ha         1 194       0.103000
@<TRIPOS>BOND
     1     1     2 ar  
     2     1     6 ar  
     3     1    32 1   
     4     2     3 ar  
     5     2    33 1   
     6     3     4 ar  
     7     3    13 1   
     8     4     5 ar  
     9     4    34 1   
    10     5     6 ar  
    11     5    10 1   
    12     6     7 1   
    13     7     8 1   
    14     7     9 1   
    15    10    11 1   
    16    10    12 1   
    17    13    14 1   
    18    14    15 ar  
    19    14    19 ar  
    20    15    16 ar  
    21    15    20 1   
    22    16    17 ar  
    23    16    35 1   
    24    17    18 ar  
    25    17    36 1   
    26    18    19 ar  
    27    18    37 1   
    28    19    38 1   
    29    20    21 1   
    30    20    39 1   
    31    21    22 2   
    32    21    23 1   
    33    23    24 ar  
    34    23    28 ar  
    35    24    25 ar  
    36    24    40 1   
    37    25    26 ar  
    38    25    29 1   
    39    26    27 ar  
    40    26    41 1   
    41    27    28 ar  
    42    27    42 1   
    43    28    43 1   
    44    29    30 1   
    45    29    31 1   
@<TRIPOS>SUBSTRUCTURE
     1 194         1 TEMP              0 ****  ****    0 ROOT
