@<TRIPOS>MOLECULE
195
   59    62     1     0     0
SMALL
bcc


@<TRIPOS>ATOM
      1 C1           0.0000     0.0000     0.0000 ca         1 195       0.184100
      2 C2           1.3830     0.0000     0.0000 ca         1 195      -0.156400
      3 C3           2.0880     0.0000     1.2050 ca         1 195      -0.139000
      4 C4           1.3970    -0.0050     2.4100 ca         1 195      -0.171400
      5 C5          -0.0050    -0.0170     2.4070 ca         1 195      -0.092000
      6 C6          -0.7000    -0.0190     1.2010 ca         1 195      -0.115000
      7 O1          -0.6620     0.1000    -1.2250 os         1 195      -0.213200
      8 C7          -1.9950    -0.3120    -1.1890 ca         1 195      -0.013900
      9 C8          -2.9760     0.5170    -1.7240 ca         1 195      -0.115000
     10 C9          -4.2830     0.0550    -1.8730 ca         1 195      -0.053600
     11 C10         -4.6110    -1.2240    -1.5050 ca         1 195      -0.049600
     12 C11         -3.6440    -2.0540    -0.9460 ca         1 195      -0.083000
     13 C12         -2.3340    -1.5980    -0.7850 ca         1 195      -0.194000
     14 C13         -5.9560    -1.7300    -1.7860 c          1 195       1.012200
     15 O2          -6.5980    -2.2860    -0.7420 o          1 195      -0.893300
     16 O3          -6.4260    -1.6390    -2.8800 o          1 195      -0.893300
     17 C14         -5.3240     0.9430    -2.3830 c          1 195       1.007200
     18 O4          -6.3080     1.2390    -1.4950 o          1 195      -0.892800
     19 O5          -5.2950     1.3520    -3.5030 o          1 195      -0.892800
     20 N1           2.0390    -0.0850    -1.1900 ns         1 195      -0.016100
     21 C15          1.8410    -1.1870    -1.9420 c          1 195       0.574700
     22 C16          2.4210    -1.1800    -3.2960 ca         1 195      -0.165600
     23 O6           1.1990    -2.1330    -1.5020 o          1 195      -0.581100
     24 C17          2.7110    -2.3890    -3.9010 ca         1 195       0.059000
     25 C18          3.1660    -2.4290    -5.2060 ca         1 195      -0.457200
     26 C19          3.3380    -1.2560    -5.9150 ca         1 195      -0.011000
     27 C20          3.0590    -0.0360    -5.3130 ca         1 195      -0.134000
     28 C21          2.5980     0.0030    -4.0030 ca         1 195       0.000000
     29 N4           3.4340    -3.7170    -5.8340 no         1 195       0.994200
     30 O7           3.8900    -3.7870    -6.9300 o          1 195      -0.441500
     31 O8           3.1230    -4.7920    -5.0780 o          1 195      -0.441500
     32 N2           2.0980     0.0140     3.5990 ns         1 195       0.013900
     33 C22          1.4830     0.3610     4.7510 c          1 195       0.563700
     34 O9           0.3090     0.7130     4.7710 o          1 195      -0.612100
     35 C23          2.3340     0.2810     5.9740 ca         1 195      -0.166600
     36 C24          3.5540    -0.3990     5.9520 ca         1 195      -0.005000
     37 C25          4.3210    -0.5060     7.1260 ca         1 195      -0.441200
     38 C26          3.8640     0.0600     8.2980 ca         1 195       0.005000
     39 C27          2.6550     0.7400     8.3200 ca         1 195      -0.135000
     40 C28          1.8880     0.8510     7.1600 ca         1 195       0.022000
     41 N3           5.6020    -1.2310     7.1260 no         1 195       0.980200
     42 O10          5.8400    -2.0700     6.3160 o          1 195      -0.434000
     43 O11          6.4620    -0.8710     8.1130 o          1 195      -0.434000
     44 H3           3.1680     0.0740     1.2000 ha         1 195       0.089000
     45 H5          -0.5480    -0.0490     3.3440 ha         1 195       0.161000
     46 H6          -1.7810     0.0600     1.1990 ha         1 195       0.164000
     47 H8          -2.7260     1.5290    -2.0170 ha         1 195       0.095000
     48 H11         -3.9060    -3.0610    -0.6430 ha         1 195       0.103000
     49 H12         -1.5830    -2.2460    -0.3490 ha         1 195       0.092000
     50 HN1          2.8210     0.5130    -1.3740 hn         1 195       0.149500
     51 H17          2.5780    -3.3120    -3.3490 ha         1 195       0.161000
     52 H19          3.6960    -1.2880    -6.9370 ha         1 195       0.119000
     53 H20          3.1960     0.8850    -5.8670 ha         1 195       0.112000
     54 H21          2.3800     0.9540    -3.5330 ha         1 195       0.117000
     55 HN2          3.0800    -0.1800     3.5990 hn         1 195       0.158500
     56 H24          3.9110    -0.8430     5.0300 ha         1 195       0.127000
     57 H26          4.4540    -0.0220     9.2030 ha         1 195       0.133000
     58 H27          2.3030     1.1840     9.2440 ha         1 195       0.115000
     59 H28          0.9450     1.3830     7.1830 ha         1 195       0.134000
@<TRIPOS>BOND
     1     1     2 ar  
     2     1     6 ar  
     3     1     7 1   
     4     2     3 ar  
     5     2    20 1   
     6     3     4 ar  
     7     3    44 1   
     8     4     5 ar  
     9     4    32 1   
    10     5     6 ar  
    11     5    45 1   
    12     6    46 1   
    13     7     8 1   
    14     8     9 ar  
    15     8    13 ar  
    16     9    10 ar  
    17     9    47 1   
    18    10    11 ar  
    19    10    17 1   
    20    11    12 ar  
    21    11    14 1   
    22    12    13 ar  
    23    12    48 1   
    24    13    49 1   
    25    14    15 1   
    26    14    16 1   
    27    17    18 1   
    28    17    19 1   
    29    20    21 1   
    30    20    50 1   
    31    21    22 1   
    32    21    23 2   
    33    22    24 ar  
    34    22    28 ar  
    35    24    25 ar  
    36    24    51 1   
    37    25    26 ar  
    38    25    29 1   
    39    26    27 ar  
    40    26    52 1   
    41    27    28 ar  
    42    27    53 1   
    43    28    54 1   
    44    29    30 1   
    45    29    31 1   
    46    32    33 1   
    47    32    55 1   
    48    33    34 2   
    49    33    35 1   
    50    35    36 ar  
    51    35    40 ar  
    52    36    37 ar  
    53    36    56 1   
    54    37    38 ar  
    55    37    41 1   
    56    38    39 ar  
    57    38    57 1   
    58    39    40 ar  
    59    39    58 1   
    60    40    59 1   
    61    41    42 1   
    62    41    43 1   
@<TRIPOS>SUBSTRUCTURE
     1 195         1 TEMP              0 ****  ****    0 ROOT
