@<TRIPOS>MOLECULE
195
   59    62     1     0     0
SMALL
bcc


@<TRIPOS>ATOM
      1 C1          -1.0650    -2.2040     1.0280 ca         1 195       0.081100
      2 C2           0.1840    -1.5980     0.6810 ca         1 195       0.078600
      3 C3           1.0620    -1.2750     1.7320 ca         1 195      -0.195000
      4 C4           0.7250    -1.5300     3.0790 ca         1 195       0.022600
      5 C5          -0.5060    -2.1250     3.3930 ca         1 195      -0.158000
      6 C6          -1.3850    -2.4490     2.3650 ca         1 195      -0.123000
      7 O1          -1.9700    -2.7040     0.1050 os         1 195      -0.264200
      8 C7          -2.3990    -1.8040    -0.8870 ca         1 195       0.002100
      9 C8          -2.3770    -2.2720    -2.2050 ca         1 195      -0.157000
     10 C9          -2.7760    -1.4310    -3.2530 ca         1 195      -0.081600
     11 C10         -3.1910    -0.1220    -2.9630 ca         1 195      -0.096600
     12 C11         -3.2810     0.2910    -1.6250 ca         1 195      -0.126000
     13 C12         -2.8810    -0.5310    -0.5750 ca         1 195      -0.197000
     14 C13         -3.4660     0.9640    -3.9990 c          1 195       0.928200
     15 O2          -2.4620     1.4700    -4.5810 o          1 195      -0.837800
     16 O3          -4.6480     1.3790    -4.1440 o          1 195      -0.837800
     17 C14         -2.6460    -2.0350    -4.6510 c          1 195       0.929200
     18 O4          -1.5360    -1.8890    -5.2410 o          1 195      -0.834800
     19 O5          -3.6010    -2.7240    -5.0990 o          1 195      -0.834800
     20 N1           0.5070    -1.3610    -0.6610 ns         1 195      -0.454100
     21 C15          1.4850    -0.4930    -1.1390 c          1 195       0.693700
     22 C16          1.4740    -0.2230    -2.6060 ca         1 195      -0.183600
     23 O6           2.3620     0.0070    -0.4030 o          1 195      -0.633100
     24 C17          2.7080    -0.1100    -3.2550 ca         1 195      -0.049000
     25 C18          2.7260     0.1560    -4.6320 ca         1 195      -0.205200
     26 C19          1.5280     0.3050    -5.3620 ca         1 195      -0.066000
     27 C20          0.3110     0.2060    -4.6970 ca         1 195      -0.054000
     28 C21          0.2850    -0.0500    -3.3200 ca         1 195      -0.022000
     29 N4           4.0260     0.2780    -5.3250 no         1 195       0.315200
     30 O7           4.0590     0.5650    -6.4950 o          1 195      -0.247000
     31 O8           5.0500     0.0930    -4.7120 o          1 195      -0.247000
     32 N2           1.6810    -1.1920     4.0690 ns         1 195      -0.440100
     33 C22          1.4030    -0.8800     5.3820 c          1 195       0.665700
     34 O9           0.3020    -1.0530     5.9390 o          1 195      -0.589100
     35 C23          2.5490    -0.3150     6.1720 ca         1 195      -0.144600
     36 C24          3.7800    -0.9700     6.2330 ca         1 195      -0.044000
     37 C25          4.8000    -0.4160     7.0250 ca         1 195      -0.185200
     38 C26          4.6010     0.7820     7.7320 ca         1 195      -0.062000
     39 C27          3.3640     1.4160     7.6530 ca         1 195      -0.150000
     40 C28          2.3370     0.8700     6.8850 ca         1 195      -0.043000
     41 N3           6.1100    -1.1090     7.1240 no         1 195       0.314200
     42 O10          6.2760    -2.1400     6.5300 o          1 195      -0.213500
     43 O11          6.9760    -0.6220     7.8040 o          1 195      -0.213500
     44 H3           2.0360    -0.8110     1.4970 ha         1 195       0.169000
     45 H5          -0.7930    -2.3230     4.4370 ha         1 195       0.153000
     46 H6          -2.3560    -2.9130     2.5950 ha         1 195       0.147000
     47 H8          -2.0460    -3.2980    -2.4210 ha         1 195       0.139000
     48 H11         -3.6640     1.3010    -1.4120 ha         1 195       0.129000
     49 H12         -2.9210    -0.1900     0.4670 ha         1 195       0.111000
     50 HN1         -0.1560    -1.7040    -1.3350 hn         1 195       0.360500
     51 H17          3.6440    -0.2220    -2.6830 ha         1 195       0.161000
     52 H19          1.5550     0.4930    -6.4470 ha         1 195       0.161000
     53 H20         -0.6720     0.2900    -5.2250 ha         1 195       0.259000
     54 H21         -0.7120    -0.1070    -2.8380 ha         1 195       0.190000
     55 HN2          2.5710    -0.9150     3.7140 hn         1 195       0.318500
     56 H24          3.9500    -1.9100     5.6790 ha         1 195       0.182000
     57 H26          5.4150     1.2100     8.3410 ha         1 195       0.165000
     58 H27          3.1990     2.3540     8.2050 ha         1 195       0.147000
     59 H28          1.3490     1.3590     6.8370 ha         1 195       0.166000
@<TRIPOS>BOND
     1     1     2 ar  
     2     1     6 ar  
     3     1     7 1   
     4     2     3 ar  
     5     2    20 1   
     6     3     4 ar  
     7     3    44 1   
     8     4     5 ar  
     9     4    32 1   
    10     5     6 ar  
    11     5    45 1   
    12     6    46 1   
    13     7     8 1   
    14     8     9 ar  
    15     8    13 ar  
    16     9    10 ar  
    17     9    47 1   
    18    10    11 ar  
    19    10    17 1   
    20    11    12 ar  
    21    11    14 1   
    22    12    13 ar  
    23    12    48 1   
    24    13    49 1   
    25    14    15 1   
    26    14    16 1   
    27    17    18 1   
    28    17    19 1   
    29    20    21 1   
    30    20    50 1   
    31    21    22 1   
    32    21    23 2   
    33    22    24 ar  
    34    22    28 ar  
    35    24    25 ar  
    36    24    51 1   
    37    25    26 ar  
    38    25    29 1   
    39    26    27 ar  
    40    26    52 1   
    41    27    28 ar  
    42    27    53 1   
    43    28    54 1   
    44    29    30 1   
    45    29    31 1   
    46    32    33 1   
    47    32    55 1   
    48    33    34 2   
    49    33    35 1   
    50    35    36 ar  
    51    35    40 ar  
    52    36    37 ar  
    53    36    56 1   
    54    37    38 ar  
    55    37    41 1   
    56    38    39 ar  
    57    38    57 1   
    58    39    40 ar  
    59    39    58 1   
    60    40    59 1   
    61    41    42 1   
    62    41    43 1   
@<TRIPOS>SUBSTRUCTURE
     1 195         1 TEMP              0 ****  ****    0 ROOT
