@<TRIPOS>MOLECULE
196
   31    33     1     0     0
SMALL
bcc


@<TRIPOS>ATOM
      1 C1           0.0200    -0.0990     0.1480 ca         1 196       0.104100
      2 C2           1.4090    -0.3690     0.1540 ca         1 196       0.037900
      3 C3           2.1220    -0.3390     1.3600 ca         1 196      -0.112000
      4 C4           1.4580    -0.0430     2.5560 cp         1 196      -0.053000
      5 C5           0.0800     0.2240     2.5380 ca         1 196      -0.097000
      6 C6          -0.6390     0.1990     1.3490 ca         1 196      -0.138000
      7 O10         -0.7340    -0.1130    -0.9990 oh         1 196      -0.486100
      8 F11          2.0380    -0.6580    -1.0140 f          1 196      -0.143900
      9 C12          2.1970    -0.0130     3.8160 cp         1 196      -0.055000
     10 C13          1.6630    -0.5590     4.9680 ca         1 196      -0.069000
     11 C14          2.3800    -0.5310     6.1900 ca         1 196      -0.073000
     12 C15          3.6660     0.0680     6.2400 ca         1 196       0.035000
     13 C16          4.2000     0.6290     5.0390 ca         1 196      -0.021000
     14 C17          3.4830     0.5860     3.8600 ca         1 196      -0.059000
     15 C20          1.8300    -1.0970     7.3770 ca         1 196      -0.084000
     16 C21          2.5200    -1.0710     8.5590 ca         1 196      -0.139000
     17 C22          3.8110    -0.4660     8.5970 ca         1 196       0.147100
     18 C23          4.3770     0.0930     7.4670 ca         1 196      -0.226000
     19 C27          5.4850     1.2380     5.0600 cg         1 196       0.236800
     20 N28          6.5360     1.7390     5.0680 n1         1 196      -0.366800
     21 O29          4.4320    -0.4830     9.8220 oh         1 196      -0.492100
     22 H3           3.2010    -0.5580     1.3540 ha         1 196       0.155000
     23 H5          -0.4380     0.4650     3.4790 ha         1 196       0.143000
     24 H6          -1.7180     0.4110     1.3310 ha         1 196       0.159000
     25 H10         -0.1480    -0.3280    -1.7410 ho         1 196       0.433000
     26 H13          0.6690    -1.0330     4.9500 ha         1 196       0.141000
     27 H17          3.8980     1.0260     2.9380 ha         1 196       0.150000
     28 H20          0.8330    -1.5600     7.3230 ha         1 196       0.141000
     29 H21          2.1130    -1.5030     9.4840 ha         1 196       0.157000
     30 H23          5.3730     0.5580     7.5050 ha         1 196       0.148000
     31 H29          5.2940    -0.0490     9.7300 ho         1 196       0.426000
@<TRIPOS>BOND
     1     1     2 ar  
     2     1     6 ar  
     3     1     7 1   
     4     2     3 ar  
     5     2     8 1   
     6     3     4 ar  
     7     3    22 1   
     8     4     5 ar  
     9     4     9 1   
    10     5     6 ar  
    11     5    23 1   
    12     6    24 1   
    13     7    25 1   
    14     9    10 ar  
    15     9    14 ar  
    16    10    11 ar  
    17    10    26 1   
    18    11    12 ar  
    19    11    15 ar  
    20    12    13 ar  
    21    12    18 ar  
    22    13    14 ar  
    23    13    19 1   
    24    14    27 1   
    25    15    16 ar  
    26    15    28 1   
    27    16    17 ar  
    28    16    29 1   
    29    17    18 ar  
    30    17    21 1   
    31    18    30 1   
    32    19    20 3   
    33    21    31 1   
@<TRIPOS>SUBSTRUCTURE
     1 196         1 TEMP              0 ****  ****    0 ROOT
