@<TRIPOS>MOLECULE
196
   31    33     1     0     0
SMALL
bcc


@<TRIPOS>ATOM
      1 C1           0.0000     0.0000     0.0000 ca         1 196       0.108100
      2 C2           1.3900     0.0000     0.0000 ca         1 196       0.073900
      3 C3           2.0810     0.0000     1.1960 ca         1 196      -0.099000
      4 C4           1.3830    -0.0110     2.4020 cp         1 196      -0.043000
      5 C5          -0.0110    -0.0110     2.3980 ca         1 196      -0.061000
      6 C6          -0.6960    -0.0050     1.2000 ca         1 196      -0.129000
      7 O10         -0.6780     0.0070    -1.1780 oh         1 196      -0.486100
      8 F11          2.0650     0.0070    -1.1700 f          1 196      -0.119900
      9 C12          2.1220    -0.0190     3.6880 cp         1 196       0.058000
     10 C13          3.2630    -0.7900     3.8090 ca         1 196      -0.140000
     11 C14          3.9820    -0.8140     5.0140 ca         1 196      -0.075000
     12 C15          3.5300    -0.0410     6.1130 ca         1 196      -0.035000
     13 C16          2.3220     0.7690     5.9660 ca         1 196       0.041000
     14 C17          1.6500     0.7570     4.7530 ca         1 196      -0.135000
     15 C20          5.1440    -1.5960     5.1490 ca         1 196      -0.066000
     16 C21          5.8210    -1.6030     6.3280 ca         1 196      -0.112000
     17 C22          5.3800    -0.8410     7.4150 ca         1 196       0.147100
     18 C23          4.2420    -0.0690     7.3160 ca         1 196      -0.154000
     19 C27          1.8400     1.5610     7.0570 cg         1 196       0.225800
     20 N28          1.4490     2.1730     7.9300 n1         1 196      -0.364800
     21 O29          6.0770    -0.8670     8.5800 oh         1 196      -0.493100
     22 H3           3.1650    -0.0000     1.1950 ha         1 196       0.123000
     23 H5          -0.5560    -0.0200     3.3340 ha         1 196       0.121000
     24 H6          -1.7800    -0.0050     1.1980 ha         1 196       0.120000
     25 H10         -0.9880     0.8790    -1.3570 ho         1 196       0.406000
     26 H13          4.2110    -0.4140     3.4440 ha         1 196       0.160000
     27 H17          1.8480     1.8220     4.7760 ha         1 196       0.156000
     28 H20          5.4970    -2.1920     4.3160 ha         1 196       0.118000
     29 H21          6.7160    -2.2040     6.4350 ha         1 196       0.119000
     30 H23          3.9030     0.5190     8.1600 ha         1 196       0.128000
     31 H29          6.4650    -0.0220     8.7330 ho         1 196       0.408000
@<TRIPOS>BOND
     1     1     2 ar  
     2     1     6 ar  
     3     1     7 1   
     4     2     3 ar  
     5     2     8 1   
     6     3     4 ar  
     7     3    22 1   
     8     4     5 ar  
     9     4     9 1   
    10     5     6 ar  
    11     5    23 1   
    12     6    24 1   
    13     7    25 1   
    14     9    10 ar  
    15     9    14 ar  
    16    10    11 ar  
    17    10    26 1   
    18    11    12 ar  
    19    11    15 ar  
    20    12    13 ar  
    21    12    18 ar  
    22    13    14 ar  
    23    13    19 1   
    24    14    27 1   
    25    15    16 ar  
    26    15    28 1   
    27    16    17 ar  
    28    16    29 1   
    29    17    18 ar  
    30    17    21 1   
    31    18    30 1   
    32    19    20 3   
    33    21    31 1   
@<TRIPOS>SUBSTRUCTURE
     1 196         1 TEMP              0 ****  ****    0 ROOT
