@<TRIPOS>MOLECULE
197
   75    78     1     0     0
SMALL
bcc


@<TRIPOS>ATOM
      1 C1           0.3260    -1.8930    -0.8300 ca         1 197      -0.101000
      2 C2           1.7180    -1.8930    -0.8590 ca         1 197      -0.112000
      3 C3           2.4500    -1.0710     0.0070 ca         1 197      -0.115600
      4 C4           1.7730    -0.2380     0.9100 ca         1 197      -0.129600
      5 C5           0.3730    -0.2440     0.9330 ca         1 197      -0.085000
      6 C6          -0.3570    -1.0670     0.0710 ca         1 197      -0.105300
      7 C7          -1.8430    -1.0230     0.0710 c3         1 197      -0.048100
      8 C8          -2.4270    -1.4170     1.4420 c3         1 197       0.068700
      9 C9          -3.9660    -1.2470     1.3290 c          1 197       0.524100
     10 N10         -4.6300    -0.6890     2.5550 ny         1 197      -0.673800
     11 N11         -2.1100    -2.7530     1.8490 ns         1 197      -0.577900
     12 C12         -2.2730    -3.1710     3.1650 c          1 197       0.688100
     13 C13         -1.6750    -4.4850     3.5770 c3         1 197      -0.173100
     14 O14         -2.9330    -2.4490     3.9450 o          1 197      -0.658100
     15 O15         -4.6540    -1.5440     0.3670 o          1 197      -0.415100
     16 C16         -6.0600    -0.2600     2.3770 c3         1 197       0.041500
     17 C17         -6.8790    -0.4780     3.6550 c3         1 197      -0.096400
     18 C18         -8.3440    -0.6830     3.3320 c3         1 197      -0.083400
     19 C19         -9.0270     0.5550     2.8010 c3         1 197      -0.115400
     20 C20         -8.4890     1.0030     1.4440 c3         1 197       0.078000
     21 N21         -7.2540     1.7580     1.4660 n          1 197      -0.414800
     22 C22         -6.1000     1.2450     1.9910 c          1 197       0.684500
     23 C23         -7.3220     3.1850     1.1640 c3         1 197       0.132300
     24 C24         -7.8960     4.0320     2.2580 ca         1 197      -0.145300
     25 O25         -5.0500     1.9150     2.1320 o          1 197      -0.669500
     26 C46         -9.2270     4.4570     2.2020 ca         1 197      -0.113000
     27 C47         -9.7410     5.2820     3.1980 ca         1 197      -0.123000
     28 C48         -8.9340     5.6930     4.2690 cp         1 197      -0.003000
     29 C49         -7.5990     5.2610     4.3210 ca         1 197      -0.123000
     30 C50         -7.0850     4.4390     3.3230 ca         1 197      -0.113000
     31 C55         -9.4730     6.5610     5.3130 cp         1 197      -0.061000
     32 C56        -10.3370     7.6150     4.9820 ca         1 197      -0.113500
     33 C57        -10.8480     8.4440     5.9790 ca         1 197      -0.127000
     34 C58        -10.5060     8.2290     7.3140 ca         1 197      -0.114000
     35 C59         -9.6480     7.1810     7.6510 ca         1 197      -0.127000
     36 C60         -9.1310     6.3530     6.6570 ca         1 197      -0.113500
     37 C68          3.9290    -1.0780    -0.0820 c          1 197       0.630700
     38 O69          4.5840    -2.2710    -0.1800 oh         1 197      -0.557100
     39 O70          4.6740    -0.1000    -0.0900 o          1 197      -0.459000
     40 C71          2.4900     0.6680     1.8460 c          1 197       0.563500
     41 O72          1.9150     1.1710     2.8120 o          1 197      -0.510100
     42 H1          -0.2330    -2.5310    -1.5320 ha         1 197       0.149000
     43 H2           2.2470    -2.5310    -1.5880 ha         1 197       0.158000
     44 H5          -0.1410     0.4290     1.6410 ha         1 197       0.158000
     45 H71A        -2.2640    -1.6940    -0.7270 hc         1 197       0.089700
     46 H72         -2.1830     0.0250    -0.1570 hc         1 197       0.089700
     47 H8          -2.0430    -0.6890     2.2240 h1         1 197       0.099700
     48 H10         -4.5640    -1.4040     3.3030 hn         1 197       0.490300
     49 H11         -1.5960    -3.3160     1.2090 hn         1 197       0.345500
     50 H131        -0.5580    -4.4230     3.5450 hc         1 197       0.091033
     51 H132        -2.0150    -5.3100     2.9040 hc         1 197       0.091033
     52 H133        -1.9940    -4.7130     4.6260 hc         1 197       0.091033
     53 H16         -6.4940    -0.8800     1.5330 hx         1 197       0.133700
     54 H171        -6.5170    -1.3880     4.2090 hc         1 197       0.076700
     55 H172        -6.7540     0.4040     4.3380 hc         1 197       0.076700
     56 H181        -8.8630    -0.9990     4.2790 hc         1 197       0.066200
     57 H182        -8.4570    -1.5250     2.5980 hc         1 197       0.066200
     58 H191        -8.9520     1.3890     3.5480 hc         1 197       0.078200
     59 H192       -10.1200     0.3270     2.6690 hc         1 197       0.078200
     60 H201        -8.3410     0.0980     0.7840 h1         1 197       0.068200
     61 H202        -9.2730     1.6540     0.9570 h1         1 197       0.068200
     62 H231        -7.9440     3.2930     0.2290 h1         1 197       0.082200
     63 H232        -6.2750     3.5420     0.9340 h1         1 197       0.082200
     64 H46         -9.8700     4.1480     1.3630 ha         1 197       0.137000
     65 H47        -10.7900     5.6150     3.1470 ha         1 197       0.146500
     66 H49         -6.9520     5.5900     5.1490 ha         1 197       0.146500
     67 H50         -6.0330     4.1140     3.3600 ha         1 197       0.137000
     68 H56        -10.6040     7.7950     3.9300 ha         1 197       0.133000
     69 H57        -11.5210     9.2720     5.7100 ha         1 197       0.139000
     70 H58        -10.9110     8.8840     8.1000 ha         1 197       0.141000
     71 H59         -9.3770     7.0090     8.7030 ha         1 197       0.139000
     72 H60         -8.4570     5.5260     6.9290 ha         1 197       0.133000
     73 H71          3.5600     0.8660     1.6130 h4         1 197       0.062200
     74 H102        -4.0830     0.1390     2.8610 hn         1 197       0.490300
     75 H112         3.9580    -3.0070    -0.1390 ho         1 197       0.429000
@<TRIPOS>BOND
     1     1     2 ar  
     2     1     6 ar  
     3     1    42 1   
     4     2     3 ar  
     5     2    43 1   
     6     3     4 ar  
     7     3    37 1   
     8     4     5 ar  
     9     4    40 1   
    10     5     6 ar  
    11     5    44 1   
    12     6     7 1   
    13     7     8 1   
    14     7    45 1   
    15     7    46 1   
    16     8     9 1   
    17     8    11 1   
    18     8    47 1   
    19     9    10 1   
    20     9    15 2   
    21    10    16 1   
    22    10    48 1   
    23    10    74 1   
    24    11    12 1   
    25    11    49 1   
    26    12    13 1   
    27    12    14 2   
    28    13    50 1   
    29    13    51 1   
    30    13    52 1   
    31    16    17 1   
    32    16    22 1   
    33    16    53 1   
    34    17    18 1   
    35    17    54 1   
    36    17    55 1   
    37    18    19 1   
    38    18    56 1   
    39    18    57 1   
    40    19    20 1   
    41    19    58 1   
    42    19    59 1   
    43    20    21 1   
    44    20    60 1   
    45    20    61 1   
    46    21    22 1   
    47    21    23 1   
    48    22    25 2   
    49    23    24 1   
    50    23    62 1   
    51    23    63 1   
    52    24    26 ar  
    53    24    30 ar  
    54    26    27 ar  
    55    26    64 1   
    56    27    28 ar  
    57    27    65 1   
    58    28    29 ar  
    59    28    31 1   
    60    29    30 ar  
    61    29    66 1   
    62    30    67 1   
    63    31    32 ar  
    64    31    36 ar  
    65    32    33 ar  
    66    32    68 1   
    67    33    34 ar  
    68    33    69 1   
    69    34    35 ar  
    70    34    70 1   
    71    35    36 ar  
    72    35    71 1   
    73    36    72 1   
    74    37    38 1   
    75    37    39 2   
    76    38    75 1   
    77    40    41 2   
    78    40    73 1   
@<TRIPOS>SUBSTRUCTURE
     1 197         1 TEMP              0 ****  ****    0 ROOT
