@<TRIPOS>MOLECULE
197
   73    76     1     0     0
SMALL
bcc


@<TRIPOS>ATOM
      1 C1           0.0000     0.0000     0.0000 ca         1 197      -0.109000
      2 C2           1.3820     0.0000     0.0000 ca         1 197      -0.084000
      3 C3           2.0790     0.0000     1.2030 ca         1 197      -0.059600
      4 C4           1.3660    -0.0000     2.4200 ca         1 197      -0.193600
      5 C5          -0.0290     0.0050     2.3980 ca         1 197      -0.077000
      6 C6          -0.7010    -0.0000     1.1920 ca         1 197      -0.146300
      7 C7          -2.2080    -0.0000     1.1760 c3         1 197       0.008900
      8 C8          -2.7180    -1.4430     1.1690 c3         1 197      -0.026300
      9 C9          -4.2230    -1.4440     1.1520 c          1 197       0.546100
     10 N10         -4.9110    -1.4440     2.3110 ns         1 197      -0.252900
     11 N11         -2.2160    -2.1330    -0.0220 ns         1 197      -0.177900
     12 C12         -2.5270    -1.6720    -1.2490 c          1 197       0.574100
     13 C13         -2.0110    -2.3830    -2.4730 c3         1 197      -0.068100
     14 O14         -3.2230    -0.6870    -1.3680 o          1 197      -0.614100
     15 O15         -4.8180    -1.4430     0.0950 o          1 197      -0.581100
     16 C16         -6.3760    -1.4440     2.2950 c3         1 197      -0.034300
     17 C17         -6.9050    -1.8460     3.6730 c3         1 197      -0.032400
     18 C18         -6.0010    -1.3190     4.7720 c3         1 197      -0.041400
     19 C19         -5.9970     0.1940     4.8870 c3         1 197      -0.047400
     20 C20         -5.3590     0.8340     3.6520 c3         1 197       0.006000
     21 N21         -6.3950     1.0050     2.6210 n          1 197      -0.132800
     22 C22         -6.8810    -0.0550     1.9670 c          1 197       0.623500
     23 C23         -6.8950     2.3440     2.3070 c3         1 197       0.111300
     24 C24         -6.0580     2.9470     1.2090 ca         1 197      -0.132300
     25 O25         -7.7310     0.0980     1.1160 o          1 197      -0.677500
     26 C46         -4.9400     3.6970     1.5270 ca         1 197      -0.082000
     27 C47         -4.1670     4.2480     0.5260 ca         1 197      -0.091500
     28 C48         -4.5210     4.0570    -0.8080 cp         1 197      -0.025000
     29 C49         -5.6510     3.3060    -1.1230 ca         1 197      -0.091500
     30 C50         -6.4140     2.7550    -0.1140 ca         1 197      -0.082000
     31 C55         -3.6960     4.6510    -1.8900 cp         1 197      -0.030000
     32 C56         -3.4430     3.9290    -3.0530 ca         1 197      -0.090500
     33 C57         -2.6810     4.4890    -4.0590 ca         1 197      -0.103500
     34 C58         -2.1590     5.7600    -3.9070 ca         1 197      -0.105000
     35 C59         -2.4020     6.4790    -2.7520 ca         1 197      -0.103500
     36 C60         -3.1680     5.9310    -1.7430 ca         1 197      -0.090500
     37 C68          3.5580    -0.0000     1.2080 c          1 197       0.979200
     38 O69          4.2350    -0.1210     0.0520 o          1 197      -0.873800
     39 O70          4.1610     0.1080     2.2560 o          1 197      -0.873800
     40 C71          2.0880    -0.0010     3.7020 c          1 197       0.631500
     41 O72          1.4730    -0.0750     4.7450 o          1 197      -0.642100
     42 H1          -0.5380    -0.0020    -0.9400 ha         1 197       0.101000
     43 H2           1.9230     0.0000    -0.9390 ha         1 197       0.132000
     44 H5          -0.5840     0.0050     3.3280 ha         1 197       0.104000
     45 H71A        -2.5600     0.5110     0.2880 hc         1 197       0.042200
     46 H72         -2.5790     0.5090     2.0570 hc         1 197       0.042200
     47 H8          -2.3670    -1.9540     2.0570 h1         1 197       0.031700
     48 H10         -4.4210    -1.5030     3.1820 hn         1 197       0.205500
     49 H11         -1.6820    -2.9740     0.0750 hn         1 197       0.172500
     50 H131        -1.8700    -1.6670    -3.2740 hc         1 197       0.019367
     51 H132        -1.0660    -2.8580    -2.2430 hc         1 197       0.019367
     52 H133        -2.7270    -3.1340    -2.7840 hc         1 197       0.019367
     53 H16         -6.7350    -2.1450     1.5510 h1         1 197       0.073700
     54 H171        -7.9000    -1.4360     3.8050 hc         1 197       0.026200
     55 H172        -6.9480    -2.9270     3.7370 hc         1 197       0.026200
     56 H181        -6.3290    -1.7350     5.7160 hc         1 197       0.019200
     57 H182        -4.9890    -1.6520     4.5740 hc         1 197       0.019200
     58 H191        -5.4330     0.4810     5.7670 hc         1 197       0.023700
     59 H192        -7.0170     0.5450     4.9810 hc         1 197       0.023700
     60 H201        -4.9470     1.8000     3.9170 h1         1 197       0.044700
     61 H202        -4.5740     0.1890     3.2750 h1         1 197       0.044700
     62 H231        -6.8360     2.9680     3.1900 h1         1 197       0.029700
     63 H232        -7.9260     2.2780     1.9800 h1         1 197       0.029700
     64 H46         -4.6660     3.8440     2.5650 ha         1 197       0.113000
     65 H47         -3.2900     4.8320     0.7770 ha         1 197       0.110500
     66 H49         -5.9300     3.1550    -2.1590 ha         1 197       0.110500
     67 H50         -7.2930     2.1710    -0.3590 ha         1 197       0.113000
     68 H56         -3.8520     2.9330    -3.1730 ha         1 197       0.112500
     69 H57         -2.4860     3.9290    -4.9650 ha         1 197       0.099000
     70 H58         -1.5590     6.1950    -4.6980 ha         1 197       0.097000
     71 H59         -1.9910     7.4750    -2.6380 ha         1 197       0.099000
     72 H60         -3.3580     6.4960    -0.8380 ha         1 197       0.112500
     73 H71          3.1690     0.0760     3.7150 h4         1 197       0.074200
@<TRIPOS>BOND
     1     1     2 ar  
     2     1     6 ar  
     3     1    42 1   
     4     2     3 ar  
     5     2    43 1   
     6     3     4 ar  
     7     3    37 1   
     8     4     5 ar  
     9     4    40 1   
    10     5     6 ar  
    11     5    44 1   
    12     6     7 1   
    13     7     8 1   
    14     7    45 1   
    15     7    46 1   
    16     8     9 1   
    17     8    11 1   
    18     8    47 1   
    19     9    10 1   
    20     9    15 2   
    21    10    16 1   
    22    10    48 1   
    23    11    12 1   
    24    11    49 1   
    25    12    13 1   
    26    12    14 2   
    27    13    50 1   
    28    13    51 1   
    29    13    52 1   
    30    16    17 1   
    31    16    22 1   
    32    16    53 1   
    33    17    18 1   
    34    17    54 1   
    35    17    55 1   
    36    18    19 1   
    37    18    56 1   
    38    18    57 1   
    39    19    20 1   
    40    19    58 1   
    41    19    59 1   
    42    20    21 1   
    43    20    60 1   
    44    20    61 1   
    45    21    22 1   
    46    21    23 1   
    47    22    25 2   
    48    23    24 1   
    49    23    62 1   
    50    23    63 1   
    51    24    26 ar  
    52    24    30 ar  
    53    26    27 ar  
    54    26    64 1   
    55    27    28 ar  
    56    27    65 1   
    57    28    29 ar  
    58    28    31 1   
    59    29    30 ar  
    60    29    66 1   
    61    30    67 1   
    62    31    32 ar  
    63    31    36 ar  
    64    32    33 ar  
    65    32    68 1   
    66    33    34 ar  
    67    33    69 1   
    68    34    35 ar  
    69    34    70 1   
    70    35    36 ar  
    71    35    71 1   
    72    36    72 1   
    73    37    38 1   
    74    37    39 1   
    75    40    41 2   
    76    40    73 1   
@<TRIPOS>SUBSTRUCTURE
     1 197         1 TEMP              0 ****  ****    0 ROOT
