@<TRIPOS>MOLECULE
molecule
   43    44     1     0     0
SMALL
bcc


@<TRIPOS>ATOM
      1 C16          0.0000     0.0000     0.0000 ca         1 198      -0.002000
      2 C17          1.3820     0.0000     0.0000 ca         1 198      -0.190500
      3 C18          2.0730     0.0000     1.2000 ca         1 198       0.187900
      4 F18          3.4250    -0.0000     1.2020 f          1 198      -0.131900
      5 C19          1.3790    -0.0000     2.3990 ca         1 198      -0.190500
      6 C20         -0.0030     0.0050     2.3950 ca         1 198      -0.002000
      7 C15         -0.6920    -0.0010     1.1960 ca         1 198      -0.319500
      8 S14         -2.4540    -0.0010     1.1940 sy         1 198       1.203300
      9 O14         -2.7710     0.6100     2.4370 o          1 198      -0.611800
     10 O15         -2.7680     0.6100    -0.0490 o          1 198      -0.611800
     11 C13         -2.8660    -1.7680     1.1930 c3         1 198      -0.187600
     12 C11         -4.3870    -1.9360     1.1900 c3         1 198       0.097800
     13 O11         -4.9250    -1.4240     2.4110 oh         1 198      -0.588800
     14 C12         -4.9840    -1.1700     0.0080 c3         1 198      -0.150100
     15 C10         -4.7310    -3.3980     1.0650 c          1 198       0.654100
     16 O10         -3.9450    -4.1640     0.5470 o          1 198      -0.573100
     17 N9          -5.9090    -3.8560     1.5310 ns         1 198      -0.469100
     18 C1          -6.2770    -5.1850     1.3130 ca         1 198       0.070600
     19 C2          -5.8950    -5.8280     0.1410 ca         1 198      -0.093000
     20 C6          -7.0310    -5.8610     2.2680 ca         1 198      -0.137000
     21 C5          -7.3950    -7.1720     2.0580 ca         1 198      -0.078000
     22 C4          -7.0080    -7.8220     0.8820 ca         1 198       0.018000
     23 C8          -7.3860    -9.1860     0.6590 cg         1 198       0.221800
     24 N8          -7.6810   -10.2650     0.4640 n1         1 198      -0.326800
     25 C3          -6.2510    -7.1400    -0.0740 ca         1 198      -0.129300
     26 C7          -5.8320    -7.8370    -1.3420 c3         1 198       0.675200
     27 F7B         -5.0900    -6.9560    -2.1360 f          1 198      -0.214967
     28 F7C         -5.0480    -8.9510    -1.0240 f          1 198      -0.214967
     29 F7A         -6.9680    -8.2530    -2.0440 f          1 198      -0.214967
     30 H16         -0.5420     0.0000    -0.9380 ha         1 198       0.157500
     31 H17          1.9240     0.0000    -0.9380 ha         1 198       0.153000
     32 H19          1.9200    -0.0000     3.3370 ha         1 198       0.153000
     33 H20         -0.5470     0.0040     3.3320 ha         1 198       0.157500
     34 H131        -2.4710    -2.2300     0.2970 h1         1 198       0.125200
     35 H132        -2.4310    -2.2410     2.0650 h1         1 198       0.125200
     36 H11         -5.7880    -1.0770     2.2530 ho         1 198       0.414000
     37 H121        -4.3380    -1.2770    -0.8550 hc         1 198       0.069367
     38 H122        -5.9650    -1.5680    -0.2230 hc         1 198       0.069367
     39 H123        -5.0720    -0.1210     0.2650 hc         1 198       0.069367
     40 HN9         -6.5640    -3.2220     1.9450 hn         1 198       0.331500
     41 H2          -5.3130    -5.2970    -0.6030 ha         1 198       0.183000
     42 H6          -7.3310    -5.3560     3.1780 ha         1 198       0.147000
     43 H5          -7.9820    -7.6970     2.8010 ha         1 198       0.154000
@<TRIPOS>BOND
     1     1     2 ar  
     2     1     7 ar  
     3     1    30 1   
     4     2     3 ar  
     5     2    31 1   
     6     3     4 1   
     7     3     5 ar  
     8     5     6 ar  
     9     5    32 1   
    10     6     7 ar  
    11     6    33 1   
    12     7     8 1   
    13     8     9 2   
    14     8    10 2   
    15     8    11 1   
    16    11    12 1   
    17    11    34 1   
    18    11    35 1   
    19    12    13 1   
    20    12    14 1   
    21    12    15 1   
    22    13    36 1   
    23    14    37 1   
    24    14    38 1   
    25    14    39 1   
    26    15    16 2   
    27    15    17 1   
    28    17    18 1   
    29    17    40 1   
    30    18    19 ar  
    31    18    20 ar  
    32    19    25 ar  
    33    19    41 1   
    34    20    21 ar  
    35    20    42 1   
    36    21    22 ar  
    37    21    43 1   
    38    22    23 1   
    39    22    25 ar  
    40    23    24 3   
    41    25    26 1   
    42    26    27 1   
    43    26    28 1   
    44    26    29 1   
@<TRIPOS>SUBSTRUCTURE
     1 198         1 TEMP              0 ****  ****    0 ROOT
