@<TRIPOS>MOLECULE
198
   43    44     1     0     0
SMALL
bcc


@<TRIPOS>ATOM
      1 C16         -0.1270    -0.4560     0.3540 ca         1 198       0.008500
      2 C17          1.2490    -0.5830     0.4740 ca         1 198      -0.193000
      3 C18          1.8550    -0.3450     1.7240 ca         1 198       0.199900
      4 F18          3.1930    -0.4620     1.8570 f          1 198      -0.122900
      5 C19          1.0680     0.0110     2.8370 ca         1 198      -0.193000
      6 C20         -0.3060     0.1310     2.6850 ca         1 198       0.008500
      7 C15         -0.9270    -0.0910     1.4470 ca         1 198      -0.420500
      8 S14         -2.5910     0.0280     1.2960 sy         1 198       1.408300
      9 O14         -3.0300    -0.8190     0.2670 o          1 198      -0.651800
     10 O15         -3.1790    -0.0740     2.5580 o          1 198      -0.651800
     11 C13         -2.6630     1.6750     0.7540 c3         1 198      -0.301600
     12 C11         -3.9350     2.0940     0.0170 c3         1 198       0.139800
     13 O11         -4.9640     1.2320     0.4870 oh         1 198      -0.610800
     14 C12         -4.2740     3.5530     0.2870 c3         1 198      -0.120100
     15 C10         -3.7160     1.9200    -1.5140 c          1 198       0.627100
     16 O10         -3.3080     2.8820    -2.1870 o          1 198      -0.579100
     17 N9          -3.9900     0.6720    -2.0430 ns         1 198      -0.456100
     18 C1          -3.8230     0.2660    -3.3720 ca         1 198       0.091600
     19 C2          -3.6260     1.1730    -4.4370 ca         1 198      -0.130000
     20 C6          -3.8810    -1.1200    -3.6660 ca         1 198      -0.159000
     21 C5          -3.7500    -1.5690    -4.9710 ca         1 198      -0.073000
     22 C4          -3.5540    -0.6650    -6.0260 ca         1 198       0.001000
     23 C8          -3.4210    -1.1690    -7.3480 cg         1 198       0.221800
     24 N8          -3.3130    -1.5930    -8.4260 n1         1 198      -0.333800
     25 C3          -3.4950     0.7080    -5.7430 ca         1 198      -0.104300
     26 C7          -3.2760     1.7270    -6.8640 c3         1 198       0.686200
     27 F7B         -2.0340     1.6620    -7.4460 f          1 198      -0.229967
     28 F7C         -4.1560     1.6160    -7.9120 f          1 198      -0.229967
     29 F7A         -3.3920     3.0400    -6.4770 f          1 198      -0.229967
     30 H16         -0.6070    -0.6600    -0.6200 ha         1 198       0.161000
     31 H17          1.8690    -0.8700    -0.3880 ha         1 198       0.162500
     32 H19          1.5470     0.1860     3.8120 ha         1 198       0.162500
     33 H20         -0.9300     0.3910     3.5610 ha         1 198       0.161000
     34 H131        -2.5620     2.3440     1.6530 h1         1 198       0.125200
     35 H132        -1.7940     1.9330     0.0920 h1         1 198       0.125200
     36 H11         -5.8150     1.6420     0.2910 ho         1 198       0.434000
     37 H121        -3.4140     4.2000    -0.0090 hc         1 198       0.064033
     38 H122        -4.4930     3.6940     1.3720 hc         1 198       0.064033
     39 H123        -5.1660     3.8580    -0.3110 hc         1 198       0.064033
     40 HN9         -4.1970    -0.0610    -1.3840 hn         1 198       0.365500
     41 H2          -3.5720     2.2610    -4.2450 ha         1 198       0.194000
     42 H6          -4.0280    -1.8550    -2.8560 ha         1 198       0.159000
     43 H5          -3.7980    -2.6490    -5.1840 ha         1 198       0.155000
@<TRIPOS>BOND
     1     1     2 ar  
     2     1     7 ar  
     3     1    30 1   
     4     2     3 ar  
     5     2    31 1   
     6     3     4 1   
     7     3     5 ar  
     8     5     6 ar  
     9     5    32 1   
    10     6     7 ar  
    11     6    33 1   
    12     7     8 1   
    13     8     9 2   
    14     8    10 2   
    15     8    11 1   
    16    11    12 1   
    17    11    34 1   
    18    11    35 1   
    19    12    13 1   
    20    12    14 1   
    21    12    15 1   
    22    13    36 1   
    23    14    37 1   
    24    14    38 1   
    25    14    39 1   
    26    15    16 2   
    27    15    17 1   
    28    17    18 1   
    29    17    40 1   
    30    18    19 ar  
    31    18    20 ar  
    32    19    25 ar  
    33    19    41 1   
    34    20    21 ar  
    35    20    42 1   
    36    21    22 ar  
    37    21    43 1   
    38    22    23 1   
    39    22    25 ar  
    40    23    24 3   
    41    25    26 1   
    42    26    27 1   
    43    26    28 1   
    44    26    29 1   
@<TRIPOS>SUBSTRUCTURE
     1 198         1 TEMP              0 ****  ****    0 ROOT
