@<TRIPOS>MOLECULE
molecule
   55    59     1     0     0
SMALL
bcc


@<TRIPOS>ATOM
      1 C01          0.0000     0.0000     0.0000 ca         1 199      -0.043000
      2 C02          1.3940     0.0000     0.0000 cp         1 199      -0.192300
      3 C03          2.0730     0.0000     1.2210 ca         1 199       0.463200
      4 N04          1.4260    -0.0060     2.3650 nb         1 199      -0.711000
      5 C05          0.1000    -0.0110     2.4200 ca         1 199       0.478800
      6 N06         -0.7930    -0.0180     3.4650 na         1 199      -0.279100
      7 C07         -2.0810    -0.0220     2.9850 cc         1 199      -0.098100
      8 C08         -2.0650    -0.0190     1.6380 cd         1 199      -0.022600
      9 C09         -0.6550    -0.0110     1.2300 ca         1 199      -0.231100
     10 N10         -3.1820    -0.0210     0.7860 ns         1 199      -0.443100
     11 C11          3.9970    -0.7580    -2.6030 ca         1 199      -0.156000
     12 C12          3.5500     0.0160    -3.6670 ca         1 199       0.076600
     13 C13          2.4030     0.7890    -3.5330 ca         1 199      -0.156000
     14 C14          1.6990     0.7820    -2.3470 ca         1 199      -0.102000
     15 C15          2.1460     0.0060    -1.2790 cp         1 199      -0.049000
     16 C16          3.3000    -0.7650    -1.4140 ca         1 199      -0.102000
     17 C17         -4.4250    -0.0280     1.3060 c          1 199       0.678700
     18 O18         -4.5800    -0.0320     2.5120 o          1 199      -0.612100
     19 C19         -7.9660    -0.0390     0.0580 ca         1 199      -0.263300
     20 C20         -7.7190    -0.0330    -1.3040 ca         1 199       0.442200
     21 N21         -6.4860    -0.0260    -1.7730 nb         1 199      -0.693000
     22 C22         -5.4390    -0.0190    -0.9750 ca         1 199       0.443200
     23 C23         -5.6010    -0.0300     0.4110 ca         1 199      -0.272900
     24 C24         -6.8990    -0.0380     0.9390 ca         1 199      -0.031000
     25 C25          4.1430    -1.3290    -5.4340 c3         1 199       0.138800
     26 C26          4.7930    -1.3670    -6.8170 c3         1 199       0.133300
     27 N27          4.0750    -0.4650    -7.7250 n3         1 199      -0.677600
     28 C28          4.1890     0.8860    -7.1630 c3         1 199       0.133300
     29 C29          3.5390     0.9240    -5.7790 c3         1 199       0.138800
     30 N30          4.2570     0.0210    -4.8710 nh         1 199      -0.551000
     31 H01         -0.5580    -0.0000    -0.9290 ha         1 199       0.134000
     32 H03          3.1570     0.0000     1.2240 h4         1 199       0.030100
     33 H06         -0.5420    -0.0190     4.4340 hn         1 199       0.310700
     34 H07         -2.9740    -0.0270     3.5970 h4         1 199       0.219000
     35 H10         -3.0550    -0.0240    -0.2060 hn         1 199       0.327500
     36 H11          4.8930    -1.3580    -2.7090 ha         1 199       0.141500
     37 H13          2.0560     1.3920    -4.3640 ha         1 199       0.141500
     38 H14          0.8050     1.3840    -2.2440 ha         1 199       0.134000
     39 H16          3.6490    -1.3680    -0.5840 ha         1 199       0.134000
     40 H19         -8.9830    -0.0450     0.4300 ha         1 199       0.146000
     41 H20         -8.5520    -0.0360    -1.9960 h4         1 199       0.028100
     42 H22         -4.4410    -0.0140    -1.3980 h4         1 199       0.017100
     43 H24         -7.0620    -0.0420     2.0100 ha         1 199       0.164000
     44 H251         3.0960    -1.5940    -5.5220 h1         1 199       0.053200
     45 H252         4.6440    -2.0340    -4.7820 h1         1 199       0.053200
     46 H261         4.7510    -2.3770    -7.2060 h1         1 199       0.046700
     47 H262         5.8250    -1.0480    -6.7370 h1         1 199       0.046700
     48 H281         3.6860     1.5900    -7.8150 h1         1 199       0.046700
     49 H282         5.2350     1.1520    -7.0760 h1         1 199       0.046700
     50 H291         2.5060     0.6060    -5.8590 h1         1 199       0.053200
     51 H292         3.5820     1.9340    -5.3900 h1         1 199       0.053200
     52 H311         5.8430    -0.1560    -8.8080 h1         1 199       0.036033
     53 H312         4.3550     0.2370    -9.6800 h1         1 199       0.036033
     54 H313         4.8090    -1.4540    -9.4220 h1         1 199       0.036033
     55 C31          4.8190    -0.4590    -8.9920 c3         1 199       0.125100
@<TRIPOS>BOND
     1     1     2 ar
     2     1     9 ar
     3     1    31 1
     4     2     3 ar
     5     2    15 1
     6     3     4 ar
     7     3    32 1
     8     4     5 ar
     9     5     6 1
    10     5     9 ar
    11     6     7 1
    12     6    33 1
    13     7     8 2
    14     7    34 1
    15     8     9 1
    16     8    10 1
    17    10    17 1
    18    10    35 1
    19    11    12 ar
    20    11    16 ar
    21    11    36 1
    22    12    13 ar
    23    12    30 1
    24    13    14 ar
    25    13    37 1
    26    14    15 ar
    27    14    38 1
    28    15    16 ar
    29    16    39 1
    30    17    18 2
    31    17    23 1
    32    19    20 ar
    33    19    24 ar
    34    19    40 1
    35    20    21 ar
    36    20    41 1
    37    21    22 ar
    38    22    23 ar
    39    22    42 1
    40    23    24 ar
    41    24    43 1
    42    25    26 1
    43    25    30 1
    44    25    44 1
    45    25    45 1
    46    26    27 1
    47    26    46 1
    48    26    47 1
    49    27    28 1
    50    27    55 1
    51    28    29 1
    52    28    48 1
    53    28    49 1
    54    29    30 1
    55    29    50 1
    56    29    51 1
    57    55    52 1
    58    55    53 1
    59    55    54 1
@<TRIPOS>SUBSTRUCTURE
     1 199         1 TEMP              0 ****  ****    0 ROOT
