@<TRIPOS>MOLECULE
199
   55    59     1     0     0
SMALL
bcc


@<TRIPOS>ATOM
      1 C01          0.1060    -0.0910    -0.0030 ca         1 199      -0.043000
      2 C02          1.4970    -0.1920     0.0040 cp         1 199      -0.173300
      3 C03          2.1700    -0.3460     1.2550 ca         1 199       0.427200
      4 N04          1.5840    -0.4030     2.4520 nb         1 199      -0.668000
      5 C05          0.2180    -0.3010     2.4340 ca         1 199       0.433800
      6 N06         -0.6640    -0.3240     3.5190 na         1 199      -0.278100
      7 C07         -1.9680    -0.1870     3.0400 cc         1 199      -0.113100
      8 C08         -1.9550    -0.0730     1.6400 cd         1 199      -0.004600
      9 C09         -0.5660    -0.1430     1.2160 ca         1 199      -0.219100
     10 N10         -3.0360     0.0700     0.7790 ns         1 199      -0.445100
     11 C11          2.5380    -0.7500    -3.5670 ca         1 199      -0.169500
     12 C12          3.7690    -0.0520    -3.6380 ca         1 199       0.143600
     13 C13          4.2210     0.6000    -2.4690 ca         1 199      -0.169500
     14 C14          3.4850     0.5460    -1.2910 ca         1 199      -0.096500
     15 C15          2.2680    -0.1440    -1.2300 cp         1 199      -0.060000
     16 C16          1.8090    -0.7880    -2.3880 ca         1 199      -0.096500
     17 C17         -4.3540     0.1900     1.1900 c          1 199       0.679700
     18 O18         -4.6760     0.1620     2.3940 o          1 199      -0.595100
     19 C19         -6.3300    -0.0750    -2.0420 ca         1 199      -0.255300
     20 C20         -7.3800     0.7960    -1.6970 ca         1 199       0.416200
     21 N21         -7.4600     1.4300    -0.5100 nb         1 199      -0.665000
     22 C22         -6.4760     1.2110     0.3790 ca         1 199       0.449200
     23 C23         -5.3720     0.3650     0.1190 ca         1 199      -0.262900
     24 C24         -5.3100    -0.2920    -1.1130 ca         1 199      -0.067000
     25 C25          5.8800     0.4390    -4.7550 c3         1 199       0.186300
     26 C26          6.6970     0.1570    -6.0330 c3         1 199       0.165300
     27 N27          6.0050     0.5570    -7.2490 n3         1 199      -0.732600
     28 C28          4.6560     0.0140    -7.3150 c3         1 199       0.165300
     29 C29          3.8330     0.2930    -6.0420 c3         1 199       0.186300
     30 N30          4.5340    -0.1030    -4.8280 nh         1 199      -0.636000
     31 H01         -0.4450     0.0330    -0.9460 ha         1 199       0.133000
     32 H03          3.2730    -0.4370     1.2700 h4         1 199       0.026100
     33 H06         -0.4050    -0.4200     4.4660 hn         1 199       0.314700
     34 H07         -2.8280    -0.1760     3.7180 h4         1 199       0.205000
     35 H10         -2.8180     0.1700    -0.1860 hn         1 199       0.323500
     36 H11          2.1520    -1.2880    -4.4470 ha         1 199       0.135500
     37 H13          5.1640     1.1660    -2.4680 ha         1 199       0.135500
     38 H14          3.8610     1.0670    -0.3970 ha         1 199       0.132000
     39 H16          0.8600    -1.3460    -2.3570 ha         1 199       0.132000
     40 H19         -6.3200    -0.5750    -3.0190 ha         1 199       0.149000
     41 H20         -8.2050     0.9970    -2.4050 h4         1 199       0.028100
     42 H22         -6.5640     1.7240     1.3560 h4         1 199       0.047100
     43 H24         -4.4880    -0.9840    -1.3510 ha         1 199       0.142000
     44 H251         5.8700     1.5530    -4.5740 h1         1 199       0.044700
     45 H252         6.4130    -0.0560    -3.8960 h1         1 199       0.044700
     46 H261         7.6490     0.7550    -5.9660 h1         1 199       0.039450
     47 H262         6.9750    -0.9370    -6.0510 h1         1 199       0.039450
     48 H281         4.1280     0.5110    -8.1770 h1         1 199       0.039450
     49 H282         4.6620    -1.0990    -7.5060 h1         1 199       0.039450
     50 H291         2.8780    -0.2950    -6.1200 h1         1 199       0.044700
     51 H292         3.5670     1.3900    -6.0150 h1         1 199       0.044700
     52 H311         6.9550    -0.8210    -8.6080 h1         1 199       0.033700
     53 H312         6.2230     0.6860    -9.3280 h1         1 199       0.033700
     54 H313         7.7650     0.7940    -8.3600 h1         1 199       0.033700
     55 C31          6.7730     0.2770    -8.4410 c3         1 199       0.157100
@<TRIPOS>BOND
     1     1     2 ar  
     2     1     9 ar  
     3     1    31 1   
     4     2     3 ar  
     5     2    15 1   
     6     3     4 ar  
     7     3    32 1   
     8     4     5 ar  
     9     5     6 1   
    10     5     9 ar  
    11     6     7 1   
    12     6    33 1   
    13     7     8 2   
    14     7    34 1   
    15     8     9 1   
    16     8    10 1   
    17    10    17 1   
    18    10    35 1   
    19    11    12 ar  
    20    11    16 ar  
    21    11    36 1   
    22    12    13 ar  
    23    12    30 1   
    24    13    14 ar  
    25    13    37 1   
    26    14    15 ar  
    27    14    38 1   
    28    15    16 ar  
    29    16    39 1   
    30    17    18 2   
    31    17    23 1   
    32    19    20 ar  
    33    19    24 ar  
    34    19    40 1   
    35    20    21 ar  
    36    20    41 1   
    37    21    22 ar  
    38    22    23 ar  
    39    22    42 1   
    40    23    24 ar  
    41    24    43 1   
    42    25    26 1   
    43    25    30 1   
    44    25    44 1   
    45    25    45 1   
    46    26    27 1   
    47    26    46 1   
    48    26    47 1   
    49    27    28 1   
    50    27    55 1   
    51    28    29 1   
    52    28    48 1   
    53    28    49 1   
    54    29    30 1   
    55    29    50 1   
    56    29    51 1   
    57    52    55 1   
    58    53    55 1   
    59    54    55 1   
@<TRIPOS>SUBSTRUCTURE
     1 199         1 TEMP              0 ****  ****    0 ROOT
