@<TRIPOS>MOLECULE
19A
   38    40     1     0     0
SMALL
bcc


@<TRIPOS>ATOM
      1 C1           0.9860    -1.2120     0.3600 c3         1 19A       0.085100
      2 N2           1.7710     0.0480     0.3970 nx         1 19A      -0.579200
      3 C3           0.9570     1.1720     0.9230 c3         1 19A       0.085100
      4 C4           2.2710     0.3860    -1.0080 c          1 19A       0.592700
      5 O5           1.3990     0.5710    -1.8550 o          1 19A      -0.477100
      6 C6           3.6900     0.4450    -1.1600 cc         1 19A      -0.300900
      7 C7           4.7470     0.2390    -0.2240 cd         1 19A      -0.078000
      8 C8           5.9650     0.4270    -0.9160 cd         1 19A      -0.157500
      9 C9           5.6340     0.7460    -2.2730 cc         1 19A      -0.016300
     10 N10          4.2770     0.7550    -2.4090 na         1 19A      -0.109100
     11 C12          7.2930     0.3270    -0.3880 cd         1 19A       0.361800
     12 N13          8.4220     0.5040    -1.1530 nc         1 19A      -0.502800
     13 N14          9.4600     0.3450    -0.3440 na         1 19A       0.009400
     14 C16          9.0860     0.0630     0.9690 cc         1 19A      -0.112300
     15 C17          7.6790     0.0410     0.9860 cd         1 19A      -0.197300
     16 C18          6.8320    -0.2110     2.1300 ca         1 19A      -0.022000
     17 C19          6.3590    -1.5060     2.3890 ca         1 19A      -0.122500
     18 C20          5.5650    -1.7510     3.5090 ca         1 19A      -0.141000
     19 C21          5.2380    -0.7100     4.3780 ca         1 19A      -0.131000
     20 C22          5.7050     0.5800     4.1250 ca         1 19A      -0.141000
     21 C23          6.5000     0.8310     3.0070 ca         1 19A      -0.122500
     22 H11          0.5910    -1.4380     1.3860 hx         1 19A       0.107033
     23 H12          1.6490    -2.0500     0.0150 hx         1 19A       0.107033
     24 H13          0.1300    -1.0920    -0.3590 hx         1 19A       0.107033
     25 H31          1.5980     2.0910     0.9930 hx         1 19A       0.107033
     26 H32          0.0990     1.3660     0.2220 hx         1 19A       0.107033
     27 H33          0.5620     0.9050     1.9390 hx         1 19A       0.107033
     28 H7           4.6660    -0.0200     0.8320 ha         1 19A       0.172000
     29 H9           6.3160     0.9580    -3.1060 h4         1 19A       0.217000
     30 HN10         3.7550     0.9430    -3.2330 hn         1 19A       0.333700
     31 HN14        10.3870     0.4310    -0.7000 hn         1 19A       0.339700
     32 H16          9.8130    -0.0980     1.7670 h4         1 19A       0.197000
     33 H19          6.6340    -2.3330     1.7170 ha         1 19A       0.145500
     34 H20          5.2180    -2.7740     3.7200 ha         1 19A       0.142000
     35 H21          4.6300    -0.9100     5.2740 ha         1 19A       0.142000
     36 H22          5.4650     1.3990     4.8200 ha         1 19A       0.142000
     37 H23          6.8810     1.8460     2.8190 ha         1 19A       0.145500
     38 H211         2.5820    -0.0880     1.0140 hn         1 19A       0.455800
@<TRIPOS>BOND
     1     1     2 1   
     2     1    22 1   
     3     1    23 1   
     4     1    24 1   
     5     2     3 1   
     6     2     4 1   
     7     2    38 1   
     8     3    25 1   
     9     3    26 1   
    10     3    27 1   
    11     4     5 2   
    12     4     6 1   
    13     6     7 2   
    14     6    10 1   
    15     7     8 1   
    16     7    28 1   
    17     8     9 2   
    18     8    11 1   
    19     9    10 1   
    20     9    29 1   
    21    10    30 1   
    22    11    12 2   
    23    11    15 1   
    24    12    13 1   
    25    13    14 1   
    26    13    31 1   
    27    14    15 2   
    28    14    32 1   
    29    15    16 1   
    30    16    17 ar  
    31    16    21 ar  
    32    17    18 ar  
    33    17    33 1   
    34    18    19 ar  
    35    18    34 1   
    36    19    20 ar  
    37    19    35 1   
    38    20    21 ar  
    39    20    36 1   
    40    21    37 1   
@<TRIPOS>SUBSTRUCTURE
     1 19A         1 TEMP              0 ****  ****    0 ROOT
