@<TRIPOS>MOLECULE
molecule
   37    39     1     0     0
SMALL
bcc


@<TRIPOS>ATOM
      1 C1           0.0000     0.0000     0.0000 c3         1 19A       0.099300
      2 N2           1.4570     0.0000     0.0000 n          1 19A      -0.509800
      3 C3           2.0900     0.0000     1.3170 c3         1 19A       0.099300
      4 C4           2.2120     0.0010    -1.2020 c          1 19A       0.703700
      5 O5           1.6700     0.0020    -2.3280 o          1 19A      -0.580100
      6 C6           3.6400     0.0170    -1.1450 cc         1 19A      -0.180900
      7 C7           4.5060    -1.0530    -1.1030 cd         1 19A      -0.125000
      8 C8           5.8180    -0.5270    -1.0530 cd         1 19A      -0.208500
      9 C9           5.7190     0.8440    -1.0640 cc         1 19A      -0.121300
     10 N10          4.3890     1.1650    -1.1190 na         1 19A      -0.140100
     11 C12          7.0280    -1.3240    -0.9990 cd         1 19A       0.422800
     12 N13          7.1130    -2.5360    -1.5540 nc         1 19A      -0.491800
     13 N14          8.3740    -2.9100    -1.2790 na         1 19A      -0.016600
     14 C16          9.0830    -1.9820    -0.5740 cc         1 19A      -0.130300
     15 C17          8.2250    -0.9310    -0.3760 cd         1 19A      -0.232300
     16 C18          8.5900     0.2620     0.3350 ca         1 19A      -0.001000
     17 C19          9.1430     1.3420    -0.3520 ca         1 19A      -0.117500
     18 C20          9.5000     2.5000     0.3400 ca         1 19A      -0.135000
     19 C21          9.3030     2.5770     1.7180 ca         1 19A      -0.130000
     20 C22          8.7500     1.4970     2.4050 ca         1 19A      -0.135000
     21 C23          8.3940     0.3390     1.7140 ca         1 19A      -0.117500
     22 H11         -0.3610    -0.9800     0.2870 h1         1 19A       0.040200
     23 H12         -0.3610     0.2410    -0.9920 h1         1 19A       0.040200
     24 H13         -0.3610     0.7390     0.7050 h1         1 19A       0.040200
     25 H31          2.7330    -0.8670     1.4090 h1         1 19A       0.040200
     26 H32          2.6810     0.9010     1.4330 h1         1 19A       0.040200
     27 H33          1.3270    -0.0330     2.0850 h1         1 19A       0.040200
     28 H7           4.2330    -2.1010    -1.1080 ha         1 19A       0.166000
     29 H9           6.5450     1.5450    -1.0340 h4         1 19A       0.182000
     30 HN10         4.0200     2.0950    -1.1390 hn         1 19A       0.301700
     31 HN14         8.7580    -3.7890    -1.5650 hn         1 19A       0.315700
     32 H16         10.1100    -2.0600    -0.2400 h4         1 19A       0.180000
     33 H19          9.2960     1.2810    -1.4220 ha         1 19A       0.137000
     34 H20          9.9290     3.3390    -0.1940 ha         1 19A       0.130000
     35 H21          9.5800     3.4760     2.2550 ha         1 19A       0.129000
     36 H22          8.5970     1.5570     3.4760 ha         1 19A       0.130000
     37 H23          7.9640    -0.4990     2.2480 ha         1 19A       0.137000
@<TRIPOS>BOND
     1     1     2 1
     2     1    22 1
     3     1    23 1
     4     1    24 1
     5     2     4 1
     6     2     3 1
     7     3    25 1
     8     3    26 1
     9     3    27 1
    10     4     5 2
    11     4     6 1
    12     6    10 1
    13     6     7 2
    14     7     8 1
    15     7    28 1
    16     8     9 2
    17     8    11 1
    18     9    10 1
    19     9    29 1
    20    10    30 1
    21    11    12 2
    22    11    15 1
    23    12    13 1
    24    13    14 1
    25    13    31 1
    26    14    15 2
    27    14    32 1
    28    15    16 1
    29    16    17 ar
    30    16    21 ar
    31    17    18 ar
    32    17    33 1
    33    18    19 ar
    34    18    34 1
    35    19    20 ar
    36    19    35 1
    37    20    21 ar
    38    20    36 1
    39    21    37 1
@<TRIPOS>SUBSTRUCTURE
     1 19A         1 TEMP              0 ****  ****    0 ROOT
