@<TRIPOS>MOLECULE
19B
   69    74     1     0     0
SMALL
bcc


@<TRIPOS>ATOM
      1 O25         0.2940   -1.3670   -0.1410 o         1 19B     -0.584100
      2 C22         1.2550   -0.5760   -0.1500 c         1 19B      0.681700
      3 N24         1.6160    0.2010    0.9420 n         1 19B     -0.469100
      4 C26         1.0360    0.2040    2.2230 ca        1 19B      0.090600
      5 C27        -0.1850   -0.4300    2.5070 ca        1 19B     -0.186000
      6 C29        -0.7310   -0.4010    3.8120 ca        1 19B      0.164600
      7 C32        -0.0300    0.2880    4.8250 ca        1 19B     -0.208000
      8 C30         1.1690    0.9300    4.5310 ca        1 19B     -0.079000
      9 C28         1.7140    0.8970    3.2560 ca        1 19B     -0.212000
     10 N31        -2.0020   -0.9880    4.0370 nh        1 19B     -0.633000
     11 C33        -2.5970   -0.7620    5.3440 c3        1 19B      0.149300
     12 C35        -4.0320   -1.3020    5.4230 c3        1 19B      0.123400
     13 O37        -4.1060   -2.6650    5.0270 os        1 19B     -0.414600
     14 C36        -3.5900   -2.8680    3.7160 c3        1 19B      0.123400
     15 C34        -2.1450   -2.3690    3.5900 c3        1 19B      0.149300
     16 C19         2.0850   -0.3900   -1.3800 ca        1 19B     -0.153600
     17 C23         3.4790   -0.3030   -1.3270 ca        1 19B     -0.097000
     18 C20         4.2030   -0.1460   -2.5040 ca        1 19B     -0.141000
     19 C18         3.5600   -0.0750   -3.7480 ca        1 19B     -0.032300
     20 C21         4.3840    0.1060   -4.9660 c3        1 19B     -0.066800
     21 C15         2.1580   -0.1780   -3.8010 cp        1 19B     -0.055000
     22 C17         1.4310   -0.3350   -2.6120 ca        1 19B     -0.061000
     23 C12         1.4170   -0.1240   -5.0640 cp        1 19B     -0.005000
     24 C9          0.3350    0.7740   -5.1840 ca        1 19B     -0.142000
     25 C4         -0.4260    0.8660   -6.3480 ca        1 19B     -0.062000
     26 C1         -0.0960    0.0350   -7.4100 ca        1 19B     -0.217900
     27 C3          0.9980   -0.8720   -7.2710 ca        1 19B      0.044100
     28 O8          1.1200   -1.5930   -8.4780 os        1 19B     -0.010600
     29 C7          1.7670   -0.9750   -6.1220 ca        1 19B     -0.107000
     30 C2         -0.5800   -0.2270   -8.7750 cc        1 19B      0.372900
     31 N6          0.1820   -1.1850   -9.3250 nd        1 19B     -0.383200
     32 C5         -1.7270    0.4720   -9.4140 c3        1 19B     -0.076000
     33 C10        -2.8370   -0.5050   -9.7800 c3        1 19B     -0.074400
     34 C13        -4.0000    0.2390  -10.4370 c3        1 19B      0.164300
     35 N16        -3.5940    1.0460  -11.5700 n3        1 19B     -0.821200
     36 C14        -2.4870    1.9400  -11.2930 c3        1 19B      0.164300
     37 C11        -1.2890    1.2370  -10.6570 c3        1 19B     -0.074400
     38 HN24        2.4050    0.7990    0.8300 hn        1 19B      0.319500
     39 H27        -0.7320   -0.9460    1.6990 ha        1 19B      0.175000
     40 H32        -0.4110    0.3310    5.8550 ha        1 19B      0.134000
     41 H30         1.7000    1.4690    5.3300 ha        1 19B      0.131000
     42 H28         2.6670    1.4090    3.0610 ha        1 19B      0.128000
     43 H33        -2.6270    0.3480    5.5310 h1        1 19B      0.050200
     44 H33A       -1.9910   -1.2470    6.1640 h1        1 19B      0.050200
     45 H35        -4.3820   -1.2990    6.4880 h1        1 19B      0.055950
     46 H35A       -4.7220   -0.6870    4.7870 h1        1 19B      0.055950
     47 H36        -3.6230   -3.9800    3.5700 h1        1 19B      0.055950
     48 H36A       -4.2530   -2.3590    2.9680 h1        1 19B      0.055950
     49 H34        -1.8410   -2.4380    2.5090 h1        1 19B      0.050200
     50 H34A       -1.4760   -3.0550    4.1870 h1        1 19B      0.050200
     51 H23         4.0130   -0.3780   -0.3670 ha        1 19B      0.138000
     52 H20         5.3010   -0.0760   -2.4620 ha        1 19B      0.140000
     53 H21         4.7270   -0.8910   -5.3440 hc        1 19B      0.054033
     54 H21A        3.8030    0.6070   -5.7790 hc        1 19B      0.054033
     55 H21B        5.2880    0.7250   -4.7440 hc        1 19B      0.054033
     56 H17         0.3320   -0.4330   -2.6470 ha        1 19B      0.159000
     57 H9          0.0900    1.4220   -4.3280 ha        1 19B      0.144000
     58 H4         -1.2630    1.5750   -6.4190 ha        1 19B      0.145000
     59 H7          2.5980   -1.6880   -6.0420 ha        1 19B      0.162000
     60 H5         -2.1310    1.2100   -8.6610 hc        1 19B      0.056700
     61 H10        -2.4400   -1.2860  -10.4790 hc        1 19B      0.060200
     62 H10A       -3.2140   -1.0220   -8.8610 hc        1 19B      0.060200
     63 H13        -4.5160    0.8550   -9.6410 h1        1 19B      0.028450
     64 H13A       -4.7440   -0.5170  -10.8160 h1        1 19B      0.028450
     65 HN16       -4.3770    1.5680  -11.9170 hn        1 19B      0.364800
     66 H14        -2.1650    2.3860  -12.2770 h1        1 19B      0.028450
     67 H14A       -2.7920    2.7950  -10.6170 h1        1 19B      0.028450
     68 H11        -0.5220    2.0070  -10.3860 hc        1 19B      0.060200
     69 H11A       -0.8270    0.5300  -11.3930 hc        1 19B      0.060200
@<TRIPOS>BOND
     1    1    2 2   
     2    2    3 1   
     3    2   16 1   
     4    3    4 1   
     5    3   38 1   
     6    4    5 ar  
     7    4    9 ar  
     8    5    6 ar  
     9    5   39 1   
    10    6    7 ar  
    11    6   10 1   
    12    7    8 ar  
    13    7   40 1   
    14    8    9 ar  
    15    8   41 1   
    16    9   42 1   
    17   10   11 1   
    18   10   15 1   
    19   11   12 1   
    20   11   43 1   
    21   11   44 1   
    22   12   13 1   
    23   12   45 1   
    24   12   46 1   
    25   13   14 1   
    26   14   15 1   
    27   14   47 1   
    28   14   48 1   
    29   15   49 1   
    30   15   50 1   
    31   16   17 ar  
    32   16   22 ar  
    33   17   18 ar  
    34   17   51 1   
    35   18   19 ar  
    36   18   52 1   
    37   19   20 1   
    38   19   21 ar  
    39   20   53 1   
    40   20   54 1   
    41   20   55 1   
    42   21   22 ar  
    43   21   23 1   
    44   22   56 1   
    45   23   24 ar  
    46   23   29 ar  
    47   24   25 ar  
    48   24   57 1   
    49   25   26 ar  
    50   25   58 1   
    51   26   27 ar  
    52   26   30 1   
    53   27   28 1   
    54   27   29 ar  
    55   28   31 1   
    56   29   59 1   
    57   30   31 2   
    58   30   32 1   
    59   32   33 1   
    60   32   37 1   
    61   32   60 1   
    62   33   34 1   
    63   33   61 1   
    64   33   62 1   
    65   34   35 1   
    66   34   63 1   
    67   34   64 1   
    68   35   36 1   
    69   35   65 1   
    70   36   37 1   
    71   36   66 1   
    72   36   67 1   
    73   37   68 1   
    74   37   69 1   
@<TRIPOS>SUBSTRUCTURE
     1 19B         1 TEMP              0 ****  ****    0 ROOT
