@<TRIPOS>MOLECULE
19C
   32    34     1     0     0
SMALL
bcc


@<TRIPOS>ATOM
      1 OAA          0.0000     0.0000     0.0000 o          1 19C      -0.663500
      2 OAB          4.0880    -0.0010     3.5850 oh         1 19C      -0.491100
      3 OAC          1.5180    -0.0010     2.6020 oh         1 19C      -0.478100
      4 CAF          4.9490     0.0000     1.3690 ca         1 19C      -0.104000
      5 CAG         -1.2180    -3.3730    -2.9700 ca         1 19C      -0.125000
      6 CAH         -0.9130    -2.0700    -2.6230 ca         1 19C      -0.046000
      7 CAI          4.7370     0.0000     0.0000 ca         1 19C      -0.081000
      8 CAJ          0.8880    -2.0680    -4.2020 ca         1 19C      -0.067000
      9 CAK          0.4700     0.0020    -2.8600 c3         1 19C       0.148300
     10 CAL          2.8960     0.0010    -1.9020 c3         1 19C       0.115300
     11 CAM          1.1300     0.0010    -0.4490 c          1 19C       0.664100
     12 CAN          3.8730     0.0000     2.2420 ca         1 19C       0.069100
     13 CAO         -0.4700    -4.0250    -3.9360 ca         1 19C       0.118900
     14 CAP          2.5720    -0.0000     1.7480 ca         1 19C       0.188100
     15 CAQ          0.5840    -3.3710    -4.5510 ca         1 19C      -0.079600
     16 CAR          0.1390    -1.4180    -3.2390 ca         1 19C      -0.137300
     17 CAS          3.4570     0.0010    -0.5010 ca         1 19C      -0.094300
     18 CAT          2.3570     0.0010     0.3640 ca         1 19C      -0.193600
     19 NAU          1.4360     0.0010    -1.7580 n          1 19C      -0.167800
     20 HOAB         4.3620     0.8590     3.8600 ho         1 19C       0.409000
     21 HOAC         1.3550    -0.8810     2.8990 ho         1 19C       0.415000
     22 HAF          5.9600    -0.0020     1.7590 ha         1 19C       0.116000
     23 HAG         -2.0430    -3.8830    -2.4870 ha         1 19C       0.125000
     24 HAH         -1.4990    -1.5590    -1.8680 ha         1 19C       0.130000
     25 HAI          5.5820    -0.0000    -0.6770 ha         1 19C       0.108000
     26 HAJ          1.7130    -1.5560    -4.6840 ha         1 19C       0.116000
     27 HAK         -0.4330     0.5120    -2.5480 h1         1 19C       0.033700
     28 HAKA         0.8970     0.5140    -3.7140 h1         1 19C       0.033700
     29 HAL1         3.2170     0.8910    -2.4300 h1         1 19C       0.026200
     30 HAL2         3.2170    -0.8890    -2.4300 h1         1 19C       0.026200
     31 FAD         -0.7680    -5.2990    -4.2750 f          1 19C      -0.120900
     32 ClA          1.5230    -4.1870    -5.7620 cl         1 19C       0.004600
@<TRIPOS>BOND
     1     1    11 2   
     2     2    12 1   
     3     2    20 1   
     4     3    14 1   
     5     3    21 1   
     6     4     7 ar  
     7     4    12 ar  
     8     4    22 1   
     9     5     6 ar  
    10     5    13 ar  
    11     5    23 1   
    12     6    16 ar  
    13     6    24 1   
    14     7    17 ar  
    15     7    25 1   
    16     8    15 ar  
    17     8    16 ar  
    18     8    26 1   
    19     9    16 1   
    20     9    19 1   
    21     9    27 1   
    22     9    28 1   
    23    10    17 1   
    24    10    19 1   
    25    10    29 1   
    26    10    30 1   
    27    11    18 1   
    28    11    19 1   
    29    12    14 ar  
    30    13    15 ar  
    31    13    31 1   
    32    14    18 ar  
    33    15    32 1   
    34    17    18 ar  
@<TRIPOS>SUBSTRUCTURE
     1 19C         1 TEMP              0 ****  ****    0 ROOT
