@<TRIPOS>MOLECULE
19C
   32    34     1     0     0
SMALL
bcc


@<TRIPOS>ATOM
      1 OAA         -0.0890    -0.1470    -0.0270 o          1 19C      -0.636500
      2 OAB          4.1820    -0.3820     3.4760 oh         1 19C      -0.491100
      3 OAC          1.5410    -0.3570     2.6020 oh         1 19C      -0.510100
      4 CAF          4.9460    -0.0790     1.2560 ca         1 19C      -0.113000
      5 CAG          0.9700    -3.1060    -5.0480 ca         1 19C      -0.163000
      6 CAH          1.0450    -1.7900    -4.6060 ca         1 19C      -0.096000
      7 CAI          4.7200     0.0870    -0.1210 ca         1 19C      -0.116000
      8 CAJ         -0.1360    -2.3870    -2.5820 ca         1 19C      -0.088000
      9 CAK          0.5370     0.0060    -2.9120 c3         1 19C       0.142300
     10 CAL          2.8650     0.2630    -1.9780 c3         1 19C       0.124300
     11 CAM          1.0630     0.0010    -0.4680 c          1 19C       0.719100
     12 CAN          3.8790    -0.2250     2.1450 ca         1 19C       0.098100
     13 CAO          0.3390    -4.0830    -4.2540 ca         1 19C       0.139900
     14 CAP          2.5350    -0.2080     1.6710 ca         1 19C       0.136100
     15 CAQ         -0.2180    -3.7150    -3.0080 ca         1 19C      -0.023600
     16 CAR          0.4920    -1.4250    -3.3760 ca         1 19C      -0.135300
     17 CAS          3.4220     0.1010    -0.5820 ca         1 19C      -0.079300
     18 CAT          2.3280    -0.0440     0.3130 ca         1 19C      -0.224600
     19 NAU          1.4070     0.2840    -1.8070 n          1 19C      -0.456800
     20 HOAB         3.3490    -0.4740     3.9650 ho         1 19C       0.441000
     21 HOAC         0.6850    -0.3320     2.1350 ho         1 19C       0.465000
     22 HAF          5.9730    -0.0960     1.6510 ha         1 19C       0.158000
     23 HAG          1.3990    -3.4010    -6.0170 ha         1 19C       0.154000
     24 HAH          1.5390    -1.0350    -5.2360 ha         1 19C       0.140000
     25 HAI          5.5740     0.2010    -0.8040 ha         1 19C       0.145000
     26 HAJ         -0.5710    -2.0880    -1.6100 ha         1 19C       0.172000
     27 HAK          0.8600     0.6650    -3.7690 h1         1 19C       0.074200
     28 HAKA        -0.5060     0.3100    -2.5980 h1         1 19C       0.074200
     29 HAL1         3.1850    -0.5840    -2.6440 h1         1 19C       0.068200
     30 HAL2         3.1920     1.2360    -2.4370 h1         1 19C       0.068200
     31 FAD          0.2800    -5.3570    -4.7030 f          1 19C      -0.123900
     32 ClA         -0.9880    -4.8540    -2.0150 cl         1 19C      -0.061400
@<TRIPOS>BOND
     1     1    11 2   
     2     2    12 1   
     3     2    20 1   
     4     3    14 1   
     5     3    21 1   
     6     4     7 ar  
     7     4    12 ar  
     8     4    22 1   
     9     5     6 ar  
    10     5    13 ar  
    11     5    23 1   
    12     6    16 ar  
    13     6    24 1   
    14     7    17 ar  
    15     7    25 1   
    16     8    15 ar  
    17     8    16 ar  
    18     8    26 1   
    19     9    16 1   
    20     9    19 1   
    21     9    27 1   
    22     9    28 1   
    23    10    17 1   
    24    10    19 1   
    25    10    29 1   
    26    10    30 1   
    27    11    18 1   
    28    11    19 1   
    29    12    14 ar  
    30    13    15 ar  
    31    13    31 1   
    32    14    18 ar  
    33    15    32 1   
    34    17    18 ar  
@<TRIPOS>SUBSTRUCTURE
     1 19C         1 TEMP              0 ****  ****    0 ROOT
