@<TRIPOS>MOLECULE
molecule
   36    37     1     0     0
SMALL
bcc


@<TRIPOS>ATOM
      1 C1           1.5070     0.0000     0.0000 c          1 19D       0.916600
      2 O1A          2.1780     0.9490     0.6710 o          1 19D      -0.805800
      3 O1B          2.1120    -0.8570    -0.6000 o          1 19D      -0.805800
      4 C2           0.0000     0.0000     0.0000 c3         1 19D       0.208600
      5 C3          -0.5590     0.0000     1.4310 c3         1 19D       0.144600
      6 C4          -2.0830    -0.1580     1.3670 c3         1 19D       0.093100
      7 O4          -2.4060    -1.4710     0.9020 oh         1 19D      -0.578800
      8 C5          -2.6590     0.8830     0.4020 c3         1 19D       0.082700
      9 N5          -2.4890     2.2240     0.9660 ns         1 19D      -0.568900
     10 C6          -1.9030     0.7850    -0.9330 c3         1 19D       0.085100
     11 O6          -0.5280     1.1630    -0.6750 os         1 19D      -0.394600
     12 C7          -1.7780    -0.7140    -1.2950 c3         1 19D       0.097100
     13 O7          -0.5250    -1.1510    -0.6890 os         1 19D      -0.366600
     14 C8          -1.7220    -0.8910    -2.8140 c3         1 19D       0.138100
     15 O8          -2.9150    -0.3680    -3.4000 oh         1 19D      -0.616800
     16 C9          -1.5990    -2.3780    -3.1490 c3         1 19D       0.127400
     17 O9          -1.4290    -2.5370    -4.5590 oh         1 19D      -0.623800
     18 C10         -3.4010     2.7120     1.8310 c          1 19D       0.654100
     19 O10         -4.3620     2.0400     2.1410 o          1 19D      -0.635100
     20 C11         -3.2260     4.0910     2.4120 c3         1 19D      -0.171100
     21 F1          -0.0050    -1.0630     2.1520 f          1 19D      -0.228300
     22 H2          -0.3120     0.9360     1.9170 h1         1 19D       0.081700
     23 H3          -2.5040    -0.0100     2.3530 h1         1 19D       0.047700
     24 H4          -2.9350    -1.9110     1.5470 ho         1 19D       0.388000
     25 H5          -3.7120     0.6860     0.2390 h1         1 19D       0.080700
     26 H6          -1.7150     2.7910     0.6830 hn         1 19D       0.338500
     27 H7          -2.3580     1.3720    -1.7220 h1         1 19D       0.089700
     28 H8          -2.6100    -1.2710    -0.8810 h1         1 19D       0.101700
     29 H9          -0.8630    -0.3610    -3.2080 h1         1 19D       0.065700
     30 H10         -2.6890     0.2340    -4.0900 ho         1 19D       0.401000
     31 H11         -0.7420    -2.7950    -2.6330 h1         1 19D       0.043700
     32 H12         -2.4970    -2.8950    -2.8330 h1         1 19D       0.043700
     33 H13         -1.0600    -3.3870    -4.7380 ho         1 19D       0.394000
     34 H14         -3.0790     4.8050     1.6100 hc         1 19D       0.057033
     35 H15         -2.3620     4.1000     3.0660 hc         1 19D       0.057033
     36 H16         -4.1100     4.3600     2.9770 hc         1 19D       0.057033
@<TRIPOS>BOND
     1    20    18 1
     2    19    18 2
     3    18     9 1
     4     9     8 1
     5    16    17 1
     6    16    14 1
     7     8     6 1
     8     8    10 1
     9     7     6 1
    10    12    10 1
    11    12    14 1
    12    12    13 1
    13     6     5 1
    14    10    11 1
    15    14    15 1
    16    21     5 1
    17    13     4 1
    18     5     4 1
    19    11     4 1
    20     4     1 1
    21     1     3 1
    22     1     2 1
    23     5    22 1
    24     6    23 1
    25     7    24 1
    26     8    25 1
    27     9    26 1
    28    10    27 1
    29    12    28 1
    30    14    29 1
    31    15    30 1
    32    16    31 1
    33    16    32 1
    34    17    33 1
    35    20    34 1
    36    20    35 1
    37    20    36 1
@<TRIPOS>SUBSTRUCTURE
     1 19D         1 TEMP              0 ****  ****    0 ROOT
