@<TRIPOS>MOLECULE
19D
   37    38     1     0     0
SMALL
bcc


@<TRIPOS>ATOM
      1 C1           1.4550     0.6390    -0.3080 c          1 19D       0.980600
      2 O1A          1.8210     0.7570    -1.4940 o          1 19D      -0.754300
      3 O1B          2.0410     0.8680     0.7670 o          1 19D      -0.754300
      4 C2          -0.0580     0.1440    -0.1510 c3         1 19D       0.149600
      5 C3          -0.5450    -0.1660     1.2970 c3         1 19D       0.104600
      6 C4          -1.9320     0.4940     1.5210 c3         1 19D       0.093100
      7 O4          -2.6010     0.0560     2.6810 oh         1 19D      -0.619800
      8 C5          -2.8840     0.2370     0.3050 c3         1 19D       0.063500
      9 N5          -4.0990     1.1140     0.4580 ny         1 19D      -0.673800
     10 C6          -2.1260     0.4930    -1.0190 c3         1 19D       0.074100
     11 O6          -0.9120     1.1650    -0.6880 os         1 19D      -0.385600
     12 C7          -1.5970    -0.8380    -1.6110 c3         1 19D       0.084100
     13 O7          -0.3110    -0.9870    -0.9830 os         1 19D      -0.392600
     14 C8          -1.3350    -0.7360    -3.1220 c3         1 19D       0.110100
     15 O8          -0.6210     0.4410    -3.4390 oh         1 19D      -0.632800
     16 C9          -2.6320    -0.6850    -3.9340 c3         1 19D       0.130400
     17 O9          -3.2330     0.5980    -3.8920 oh         1 19D      -0.651800
     18 C10         -5.2380     0.6920    -0.4360 c          1 19D       0.557100
     19 O10         -5.8840    -0.2730    -0.0520 o          1 19D      -0.431100
     20 C11         -5.4460     1.4900    -1.6750 c3         1 19D      -0.204100
     21 F1          -0.6230    -1.5200     1.5630 f          1 19D      -0.228300
     22 H2           0.2080     0.3030     2.0030 h1         1 19D       0.144700
     23 H3          -1.7630     1.6010     1.6510 h1         1 19D       0.102700
     24 H4          -2.2700    -0.8260     2.9100 ho         1 19D       0.443000
     25 H5          -3.2520    -0.8300     0.3560 hx         1 19D       0.116700
     26 H6          -4.3900     1.0420     1.4460 hn         1 19D       0.462800
     27 H7          -2.6620     1.1240    -1.7680 h1         1 19D       0.115700
     28 H8          -2.2120    -1.7360    -1.3590 h1         1 19D       0.067700
     29 H9          -0.7330    -1.6410    -3.4210 h1         1 19D       0.074700
     30 H10          0.1610     0.4890    -2.8470 ho         1 19D       0.487000
     31 H11         -3.3980    -1.3850    -3.5100 h1         1 19D       0.051700
     32 H12         -2.4140    -0.9600    -5.0000 h1         1 19D       0.051700
     33 H13         -2.5670     1.2300    -4.1980 ho         1 19D       0.440000
     34 H14         -4.7510     1.1160    -2.4830 hc         1 19D       0.119367
     35 H15         -6.5010     1.3390    -2.0240 hc         1 19D       0.119367
     36 H16         -5.2630     2.5810    -1.5210 hc         1 19D       0.119367
     37 H52         -3.8290     2.0810     0.2560 hn         1 19D       0.462800
@<TRIPOS>BOND
     1     1     2 1   
     2     1     3 1   
     3     1     4 1   
     4     4     5 1   
     5     4    11 1   
     6     4    13 1   
     7     5     6 1   
     8     5    21 1   
     9     5    22 1   
    10     6     7 1   
    11     6     8 1   
    12     6    23 1   
    13     7    24 1   
    14     8     9 1   
    15     8    10 1   
    16     8    25 1   
    17     9    18 1   
    18     9    26 1   
    19     9    37 1   
    20    10    11 1   
    21    10    12 1   
    22    10    27 1   
    23    12    13 1   
    24    12    14 1   
    25    12    28 1   
    26    14    15 1   
    27    14    16 1   
    28    14    29 1   
    29    15    30 1   
    30    16    17 1   
    31    16    31 1   
    32    16    32 1   
    33    17    33 1   
    34    18    19 2   
    35    18    20 1   
    36    20    34 1   
    37    20    35 1   
    38    20    36 1   
@<TRIPOS>SUBSTRUCTURE
     1 19D         1 TEMP              0 ****  ****    0 ROOT
