@<TRIPOS>MOLECULE
molecule
   31    34     1     0     0
SMALL
bcc


@<TRIPOS>ATOM
      1 C1           0.0000     0.0000     0.0000 ca         1 19E       0.102100
      2 O1          -0.6730     0.0060    -1.1810 oh         1 19E      -0.524100
      3 C2           1.3770     0.0000     0.0000 ca         1 19E      -0.146000
      4 C3           2.0690     0.0000     1.2210 ca         1 19E      -0.045000
      5 C4           1.3370    -0.0010     2.4330 ca         1 19E       0.014000
      6 C5          -0.0620    -0.0010     2.3990 ca         1 19E      -0.157000
      7 C6          -0.7120    -0.0010     1.2020 ca         1 19E      -0.139000
      8 C7           3.4760    -0.0010     1.2610 ca         1 19E      -0.083000
      9 C8           4.1410    -0.0020     2.4420 ca         1 19E      -0.135000
     10 C9           3.4650    -0.0030     3.6700 ca         1 19E      -0.015200
     11 C10          2.0710    -0.0010     3.6930 cp         1 19E      -0.073000
     12 N11          3.9230    -0.0050     4.9760 na         1 19E      -0.163300
     13 C12          2.8650    -0.0050     5.8530 ca         1 19E       0.023800
     14 C13          1.6720    -0.0010     5.1050 cp         1 19E      -0.188300
     15 C14          2.7690    -0.0070     7.2440 ca         1 19E      -0.227600
     16 C15          4.0100    -0.0080     8.0970 c3         1 19E      -0.042800
     17 C16          1.5210    -0.0070     7.8260 ca         1 19E       0.450200
     18 N17          0.4180    -0.0050     7.0950 nb         1 19E      -0.704000
     19 C18          0.4510    -0.0020     5.7770 ca         1 19E       0.560300
     20 Cl18        -1.0320    -0.0010     4.8750 cl         1 19E      -0.125000
     21 HO1         -0.7800    -0.8800    -1.4860 ho         1 19E       0.419000
     22 H2           1.9180     0.1230    -0.9300 ha         1 19E       0.143000
     23 H5          -0.6280    -0.0010     3.3230 ha         1 19E       0.181000
     24 H6          -1.7950    -0.0010     1.1810 ha         1 19E       0.139000
     25 H7           4.0360    -0.0020     0.3340 ha         1 19E       0.138000
     26 H8           5.2250    -0.0020     2.4370 ha         1 19E       0.128000
     27 H15          3.7290    -0.0090     9.1430 hc         1 19E       0.045367
     28 H15A         4.5970    -0.8930     7.8800 hc         1 19E       0.045367
     29 H15B         4.5980     0.8770     7.8820 hc         1 19E       0.045367
     30 H16          1.4400    -0.0100     8.9070 h4         1 19E       0.033100
     31 HN11         4.8880    -0.0060     5.2440 hn         1 19E       0.304700
@<TRIPOS>BOND
     1     2     1 1
     2     1     7 ar
     3     1     3 ar
     4     2    21 1
     5     3     4 ar
     6     3    22 1
     7     4     5 ar
     8     4     8 ar
     9     6     5 ar
    10     5    11 ar
    11     7     6 ar
    12     6    23 1
    13     7    24 1
    14     8     9 ar
    15     8    25 1
    16     9    10 ar
    17     9    26 1
    18    11    10 ar
    19    10    12 1
    20    11    14 1
    21    13    12 1
    22    14    13 ar
    23    13    15 ar
    24    19    14 ar
    25    17    15 ar
    26    15    16 1
    27    16    27 1
    28    16    28 1
    29    16    29 1
    30    18    17 ar
    31    17    30 1
    32    19    18 ar
    33    20    19 1
    34    12    31 1
@<TRIPOS>SUBSTRUCTURE
     1 19E         1 TEMP              0 ****  ****    0 ROOT
