@<TRIPOS>MOLECULE
19E
   31    34     1     0     0
SMALL
bcc


@<TRIPOS>ATOM
      1 C1           0.0690     0.0260    -0.1220 ca         1 19E       0.116100
      2 O1          -0.5250     0.0580    -1.3640 oh         1 19E      -0.497100
      3 C2           1.4480     0.1210    -0.0740 ca         1 19E      -0.154000
      4 C3           2.1140     0.0980     1.1770 ca         1 19E      -0.028000
      5 C4           1.3630     0.0290     2.3860 ca         1 19E      -0.006000
      6 C5          -0.0430    -0.1230     2.2840 ca         1 19E      -0.092000
      7 C6          -0.6860    -0.1180     1.0700 ca         1 19E      -0.187000
      8 C7           3.5410     0.1100     1.1990 ca         1 19E      -0.093000
      9 C8           4.2370     0.0290     2.3730 ca         1 19E      -0.136000
     10 C9           3.4990    -0.0100     3.5820 ca         1 19E      -0.026200
     11 C10          2.0670     0.0590     3.6220 cp         1 19E      -0.046000
     12 N11          4.0160    -0.0880     4.8800 na         1 19E      -0.174300
     13 C12          2.9530    -0.0380     5.7710 ca         1 19E       0.013800
     14 C13          1.7030     0.1040     5.0310 cp         1 19E      -0.171300
     15 C14          2.9800    -0.0930     7.1760 ca         1 19E      -0.221600
     16 C15          4.2370    -0.2620     7.9280 c3         1 19E      -0.043800
     17 C16          1.7360     0.0330     7.8120 ca         1 19E       0.427200
     18 N17          0.5680     0.2410     7.1760 nb         1 19E      -0.684000
     19 C18          0.5540     0.3020     5.8260 ca         1 19E       0.539300
     20 Cl18        -0.9610     0.7090     5.1310 cl         1 19E      -0.149000
     21 HO1         -1.4810    -0.0180    -1.2370 ho         1 19E       0.419000
     22 H2           2.0300     0.2050    -1.0030 ha         1 19E       0.150000
     23 H5          -0.6290    -0.2700     3.2060 ha         1 19E       0.154000
     24 H6          -1.7780    -0.2340     1.0110 ha         1 19E       0.136000
     25 H7           4.0760     0.1680     0.2380 ha         1 19E       0.140000
     26 H8           5.3350     0.0010     2.3930 ha         1 19E       0.139000
     27 H15          4.7510    -1.2090     7.6270 hc         1 19E       0.046367
     28 H15A         4.9320     0.5930     7.7270 hc         1 19E       0.046367
     29 H15B         4.0440    -0.3030     9.0290 hc         1 19E       0.046367
     30 H16          1.6610    -0.0180     8.9140 h4         1 19E       0.029100
     31 HN11         4.9670    -0.1750     5.1210 hn         1 19E       0.308700
@<TRIPOS>BOND
     1     1     2 1   
     2     1     3 ar  
     3     1     7 ar  
     4     2    21 1   
     5     3     4 ar  
     6     3    22 1   
     7     4     5 ar  
     8     4     8 ar  
     9     5     6 ar  
    10     5    11 ar  
    11     6     7 ar  
    12     6    23 1   
    13     7    24 1   
    14     8     9 ar  
    15     8    25 1   
    16     9    10 ar  
    17     9    26 1   
    18    10    11 ar  
    19    10    12 1   
    20    11    14 1   
    21    12    13 1   
    22    12    31 1   
    23    13    14 ar  
    24    13    15 ar  
    25    14    19 ar  
    26    15    16 1   
    27    15    17 ar  
    28    16    27 1   
    29    16    28 1   
    30    16    29 1   
    31    17    18 ar  
    32    17    30 1   
    33    18    19 ar  
    34    19    20 1   
@<TRIPOS>SUBSTRUCTURE
     1 19E         1 TEMP              0 ****  ****    0 ROOT
