@<TRIPOS>MOLECULE
19E
   31    34     1     0     0
SMALL
bcc


@<TRIPOS>ATOM
      1 C1          0.0980   -0.1540   -0.1080 ca        1 19E      0.116100
      2 O1         -0.4630   -0.1690   -1.3660 oh        1 19E     -0.497100
      3 C2          1.4670    0.0210   -0.0240 ca        1 19E     -0.154000
      4 C3          2.0990    0.0500    1.2440 ca        1 19E     -0.028000
      5 C4          1.3210   -0.0500    2.4340 ca        1 19E     -0.006000
      6 C5         -0.0720   -0.2830    2.2960 ca        1 19E     -0.092000
      7 C6         -0.6800   -0.3280    1.0650 ca        1 19E     -0.187000
      8 C7          3.5220    0.1440    1.3040 ca        1 19E     -0.093000
      9 C8          4.1890    0.1160    2.4980 ca        1 19E     -0.136000
     10 C9          3.4210    0.0480    3.6860 ca        1 19E     -0.026200
     11 C10         1.9870    0.0350    3.6870 cp        1 19E     -0.046000
     12 N11         3.9060    0.0140    4.9980 na        1 19E     -0.174300
     13 C12         2.8180    0.0130    5.8610 ca        1 19E      0.013800
     14 C13         1.5830    0.0740    5.0860 cp        1 19E     -0.171300
     15 C14         2.8090   -0.0260    7.2670 ca        1 19E     -0.221600
     16 C15         4.0530   -0.1130    8.0540 c3        1 19E     -0.043800
     17 C16         1.5440    0.0350    7.8670 ca        1 19E      0.427200
     18 N17         0.3830    0.1690    7.1970 nb        1 19E     -0.684000
     19 C18         0.4020    0.2140    5.8470 ca        1 19E      0.539300
     20 CL18       -1.1130    0.5250    5.1070 cl        1 19E     -0.149000
     21 HO1        -1.4160   -0.2990   -1.2640 ho        1 19E      0.419000
     22 H2          2.0680    0.1290   -0.9380 ha        1 19E      0.150000
     23 H5         -0.6730   -0.4530    3.2030 ha        1 19E      0.154000
     24 H6         -1.7620   -0.5070    0.9780 ha        1 19E      0.136000
     25 H7          4.0780    0.2230    0.3570 ha        1 19E      0.140000
     26 H8          5.2860    0.1520    2.5470 ha        1 19E      0.139000
     27 H15         3.8320   -0.1510    9.1490 hc        1 19E      0.046367
     28 H15A        4.7040    0.7770    7.8590 hc        1 19E      0.046367
     29 H15B        4.6280   -1.0340    7.7790 hc        1 19E      0.046367
     30 H16         1.4420   -0.0070    8.9670 h4        1 19E      0.029100
     31 HN11        4.8540   -0.0160    5.2670 hn        1 19E      0.308700
@<TRIPOS>BOND
     1    1    2 1   
     2    1    3 ar  
     3    1    7 ar  
     4    2   21 1   
     5    3    4 ar  
     6    3   22 1   
     7    4    5 ar  
     8    4    8 ar  
     9    5    6 ar  
    10    5   11 ar  
    11    6    7 ar  
    12    6   23 1   
    13    7   24 1   
    14    8    9 ar  
    15    8   25 1   
    16    9   10 ar  
    17    9   26 1   
    18   10   11 ar  
    19   10   12 1   
    20   11   14 1   
    21   12   13 1   
    22   12   31 1   
    23   13   14 ar  
    24   13   15 ar  
    25   14   19 ar  
    26   15   16 1   
    27   15   17 ar  
    28   16   27 1   
    29   16   28 1   
    30   16   29 1   
    31   17   18 ar  
    32   17   30 1   
    33   18   19 ar  
    34   19   20 1   
@<TRIPOS>SUBSTRUCTURE
     1 19E         1 TEMP              0 ****  ****    0 ROOT
