@<TRIPOS>MOLECULE
molecule
   67    70     1     0     0
SMALL
bcc


@<TRIPOS>ATOM
      1 CAB          0.0000     0.0000     0.0000 c3         1 19F       0.126700
      2 OAW          1.4290     0.0000     0.0000 os         1 19F      -0.311900
      3 CBC          2.0450     0.0000     1.2120 ca         1 19F       0.117100
      4 CAN          1.2920     0.0020     2.3740 ca         1 19F      -0.172000
      5 CBB          3.4360    -0.0050     1.2870 ca         1 19F       0.124100
      6 OAV          4.1800    -0.0120     0.1480 os         1 19F      -0.312900
      7 CAA          5.6000    -0.0180     0.3020 c3         1 19F       0.126700
      8 CAM          4.0590    -0.0040     2.5230 ca         1 19F      -0.188000
      9 CAL          3.3020     0.0030     3.6800 ca         1 19F      -0.105000
     10 CAY          1.9210     0.0030     3.6060 ca         1 19F      -0.085300
     11 CAR          1.1000     0.0040     4.8700 c3         1 19F      -0.053400
     12 CBA          0.8260    -1.4160     5.2920 cc         1 19F       0.453900
     13 NAU          0.0880    -1.6330     6.4290 ns         1 19F      -0.497400
     14 CBE         -0.1810    -2.8920     6.8430 c          1 19F       0.749100
     15 OAE         -0.8350    -3.0930     7.8490 o          1 19F      -0.606500
     16 NAT          1.2920    -2.3780     4.5670 n2         1 19F      -0.555100
     17 NBI          1.0700    -3.7160     4.9080 na         1 19F       0.063200
     18 CBF          0.3370    -4.0040     6.0460 cc         1 19F      -0.374200
     19 CAZ          0.2760    -5.3720     6.1360 cd         1 19F       0.424600
     20 CAC         -0.4190    -6.1660     7.2120 c3         1 19F      -0.111400
     21 NAS          0.9440    -5.8690     5.0950 nd         1 19F      -0.677000
     22 CBD          1.4180    -4.8880     4.3620 cc         1 19F       0.483800
     23 CBH          2.2290    -5.0560     3.1030 c3         1 19F      -0.077000
     24 CBG          1.4090    -5.8280     2.0670 c3         1 19F       0.153100
     25 CAD          2.1770    -5.8810     0.7440 c3         1 19F      -0.129100
     26 OAF          1.1780    -7.1570     2.5370 oh         1 19F      -0.586800
     27 CAQ          3.5100    -5.8310     3.4190 c3         1 19F      -0.072400
     28 CAO          4.3950    -4.9970     4.3480 c3         1 19F      -0.081400
     29 CAP          5.6230    -5.8150     4.7530 c3         1 19F      -0.035100
     30 CAX          6.4940    -4.9930     5.6670 ca         1 19F      -0.078300
     31 CAJ          7.4850    -4.1880     5.1380 ca         1 19F      -0.125500
     32 CAH          8.2850    -3.4340     5.9760 ca         1 19F      -0.127500
     33 CAG          8.0930    -3.4850     7.3440 ca         1 19F      -0.135000
     34 CAI          7.1020    -4.2900     7.8730 ca         1 19F      -0.127500
     35 CAK          6.2990    -5.0400     7.0350 ca         1 19F      -0.125500
     36 H1          -0.3610     0.0150    -1.0210 h1         1 19F       0.041033
     37 H2          -0.3610    -0.8920     0.4970 h1         1 19F       0.041033
     38 H3          -0.3610     0.8770     0.5240 h1         1 19F       0.041033
     39 H4           0.2100     0.0020     2.3180 ha         1 19F       0.140000
     40 H5           6.0690    -0.0120    -0.6750 h1         1 19F       0.041700
     41 H6           5.9010    -0.9080     0.8410 h1         1 19F       0.041700
     42 H7           5.9070     0.8610     0.8560 h1         1 19F       0.041700
     43 H8           5.1410    -0.0060     2.5840 ha         1 19F       0.144000
     44 H9           3.7910     0.0030     4.6470 ha         1 19F       0.134000
     45 H10          1.6450     0.5150     5.6540 hc         1 19F       0.073200
     46 H11          0.1620     0.5150     4.6910 hc         1 19F       0.073200
     47 H12         -0.2540    -0.8530     6.9550 hn         1 19F       0.341500
     48 H13         -1.4800    -5.9450     7.1960 hc         1 19F       0.055700
     49 H14         -0.0090    -5.9010     8.1790 hc         1 19F       0.055700
     50 H15         -0.2680    -7.2240     7.0340 hc         1 19F       0.055700
     51 H16          2.4860    -4.0810     2.7060 hc         1 19F       0.080700
     52 H17          0.4600    -5.3290     1.9140 h1         1 19F       0.033700
     53 H18          1.5890    -5.4090    -0.0340 hc         1 19F       0.044033
     54 H19          2.3670    -6.9130     0.4770 hc         1 19F       0.044033
     55 H20          3.1190    -5.3570     0.8520 hc         1 19F       0.044033
     56 H21          0.4360    -7.5250     2.0860 ho         1 19F       0.399000
     57 H22          3.2560    -6.7660     3.9040 hc         1 19F       0.063700
     58 H23          4.0440    -6.0360     2.4990 hc         1 19F       0.063700
     59 H24          4.7130    -4.0980     3.8330 hc         1 19F       0.046200
     60 H25          3.8330    -4.7260     5.2340 hc         1 19F       0.046200
     61 H26          6.1840    -6.0860     3.8670 hc         1 19F       0.050200
     62 H27          5.3050    -6.7130     5.2680 hc         1 19F       0.050200
     63 H28          7.6350    -4.1480     4.0660 ha         1 19F       0.130500
     64 H29          9.0620    -2.8030     5.5610 ha         1 19F       0.127000
     65 H30          8.7210    -2.8960     8.0010 ha         1 19F       0.126000
     66 H31          6.9510    -4.3280     8.9450 ha         1 19F       0.127000
     67 H32          5.5220    -5.6700     7.4500 ha         1 19F       0.130500
@<TRIPOS>BOND
     1    32    31 ar
     2    32    33 ar
     3    31    30 ar
     4    33    34 ar
     5    30    29 1
     6    30    35 ar
     7    34    35 ar
     8    29    28 1
     9    26    24 1
    10    28    27 1
    11    27    23 1
    12     1     2 1
    13    23    24 1
    14    23    22 1
    15    24    25 1
    16     2     3 1
    17    22    21 2
    18    22    17 1
    19    21    19 1
    20     3     4 ar
    21     3     5 ar
    22     4    10 ar
    23    17    16 1
    24    17    18 1
    25    16    12 2
    26    19    18 2
    27    19    20 1
    28     6     5 1
    29     6     7 1
    30     5     8 ar
    31    18    14 1
    32    10    11 1
    33    10     9 ar
    34    12    11 1
    35    12    13 1
    36     8     9 ar
    37    14    13 1
    38    14    15 2
    39     1    36 1
    40     1    37 1
    41     1    38 1
    42     4    39 1
    43     7    40 1
    44     7    41 1
    45     7    42 1
    46     8    43 1
    47     9    44 1
    48    11    45 1
    49    11    46 1
    50    13    47 1
    51    20    48 1
    52    20    49 1
    53    20    50 1
    54    23    51 1
    55    24    52 1
    56    25    53 1
    57    25    54 1
    58    25    55 1
    59    26    56 1
    60    27    57 1
    61    27    58 1
    62    28    59 1
    63    28    60 1
    64    29    61 1
    65    29    62 1
    66    31    63 1
    67    32    64 1
    68    33    65 1
    69    34    66 1
    70    35    67 1
@<TRIPOS>SUBSTRUCTURE
     1 19F         1 TEMP              0 ****  ****    0 ROOT
