@<TRIPOS>MOLECULE
19F
   67    70     1     0     0
SMALL
bcc


@<TRIPOS>ATOM
      1 CAB          0.0000     0.0000     0.0000 c3         1 19F       0.240700
      2 OAW          1.4290     0.0000     0.0000 os         1 19F      -0.291900
      3 CBC          2.0450     0.0000     1.2120 ca         1 19F       0.121100
      4 CAN          1.2920     0.0020     2.3740 ca         1 19F      -0.161000
      5 CBB          3.4360    -0.0050     1.2870 ca         1 19F       0.124100
      6 OAV          4.1800    -0.0120     0.1480 os         1 19F      -0.292900
      7 CAA          5.6000    -0.0180     0.3020 c3         1 19F       0.240700
      8 CAM          4.0590    -0.0040     2.5230 ca         1 19F      -0.175000
      9 CAL          3.3020     0.0030     3.6800 ca         1 19F      -0.079000
     10 CAY          1.9210     0.0030     3.6060 ca         1 19F      -0.086300
     11 CAR          1.1000     0.0040     4.8700 c3         1 19F       0.012600
     12 CBA          0.8260    -1.4160     5.2920 cc         1 19F       0.329900
     13 NAU          0.0880    -1.6330     6.4290 ns         1 19F      -0.058400
     14 CBE         -0.1810    -2.8920     6.8430 c          1 19F       0.673100
     15 OAE         -0.8350    -3.0930     7.8490 o          1 19F      -0.639500
     16 NAT          1.2920    -2.3780     4.5670 n2         1 19F      -0.675100
     17 NBI          1.0700    -3.7160     4.9080 na         1 19F       0.547200
     18 CBF          0.3370    -4.0040     6.0460 cc         1 19F      -0.570200
     19 CAZ          0.2760    -5.3720     6.1360 cd         1 19F       0.408600
     20 CAC         -0.4190    -6.1660     7.2120 c3         1 19F      -0.006400
     21 NAS          0.9440    -5.8690     5.0950 nd         1 19F      -0.600000
     22 CBD          1.4180    -4.8880     4.3620 cc         1 19F       0.264800
     23 CBH          2.2290    -5.0560     3.1030 c3         1 19F      -0.059000
     24 CBG          1.4090    -5.8280     2.0670 c3         1 19F       0.197100
     25 CAD          2.1770    -5.8810     0.7440 c3         1 19F      -0.046100
     26 OAF          1.1780    -7.1570     2.5370 oh         1 19F      -0.565800
     27 CAQ          3.5100    -5.8310     3.4190 c3         1 19F      -0.032400
     28 CAO          4.3950    -4.9970     4.3480 c3         1 19F      -0.032400
     29 CAP          5.6230    -5.8150     4.7530 c3         1 19F       0.030900
     30 CAX          6.4940    -4.9930     5.6670 ca         1 19F      -0.085300
     31 CAJ          7.4850    -4.1880     5.1380 ca         1 19F      -0.099500
     32 CAH          8.2850    -3.4340     5.9760 ca         1 19F      -0.101000
     33 CAG          8.0930    -3.4850     7.3440 ca         1 19F      -0.109000
     34 CAI          7.1020    -4.2900     7.8730 ca         1 19F      -0.101000
     35 CAK          6.2990    -5.0400     7.0350 ca         1 19F      -0.099500
     36 H1          -0.3610     0.0150    -1.0210 h1         1 19F      -0.003300
     37 H2          -0.3610    -0.8920     0.4970 h1         1 19F      -0.003300
     38 H3          -0.3610     0.8770     0.5240 h1         1 19F      -0.003300
     39 H4           0.2100     0.0020     2.3180 ha         1 19F       0.122000
     40 H5           6.0690    -0.0120    -0.6750 h1         1 19F      -0.002300
     41 H6           5.9010    -0.9080     0.8410 h1         1 19F      -0.002300
     42 H7           5.9070     0.8610     0.8560 h1         1 19F      -0.002300
     43 H8           5.1410    -0.0060     2.5840 ha         1 19F       0.124000
     44 H9           3.7910     0.0030     4.6470 ha         1 19F       0.105000
     45 H10          1.6450     0.5150     5.6540 hc         1 19F       0.033700
     46 H11          0.1620     0.5150     4.6910 hc         1 19F       0.033700
     47 H12         -0.2540    -0.8530     6.9550 hn         1 19F       0.191500
     48 H13         -1.4800    -5.9450     7.1960 hc         1 19F       0.015700
     49 H14         -0.0090    -5.9010     8.1790 hc         1 19F       0.015700
     50 H15         -0.2680    -7.2240     7.0340 hc         1 19F       0.015700
     51 H16          2.4860    -4.0810     2.7060 hc         1 19F       0.047700
     52 H17          0.4600    -5.3290     1.9140 h1         1 19F      -0.002300
     53 H18          1.5890    -5.4090    -0.0340 hc         1 19F       0.014033
     54 H19          2.3670    -6.9130     0.4770 hc         1 19F       0.014033
     55 H20          3.1190    -5.3570     0.8520 hc         1 19F       0.014033
     56 H21          0.4360    -7.5250     2.0860 ho         1 19F       0.384000
     57 H22          3.2560    -6.7660     3.9040 hc         1 19F       0.037700
     58 H23          4.0440    -6.0360     2.4990 hc         1 19F       0.037700
     59 H24          4.7130    -4.0980     3.8330 hc         1 19F       0.017200
     60 H25          3.8330    -4.7260     5.2340 hc         1 19F       0.017200
     61 H26          6.1840    -6.0860     3.8670 hc         1 19F       0.020700
     62 H27          5.3050    -6.7130     5.2680 hc         1 19F       0.020700
     63 H28          7.6350    -4.1480     4.0660 ha         1 19F       0.106500
     64 H29          9.0620    -2.8030     5.5610 ha         1 19F       0.100500
     65 H30          8.7210    -2.8960     8.0010 ha         1 19F       0.101000
     66 H31          6.9510    -4.3280     8.9450 ha         1 19F       0.100500
     67 H32          5.5220    -5.6700     7.4500 ha         1 19F       0.106500
@<TRIPOS>BOND
     1     1     2 1   
     2     1    36 1   
     3     1    37 1   
     4     1    38 1   
     5     2     3 1   
     6     3     4 ar  
     7     3     5 ar  
     8     4    10 ar  
     9     4    39 1   
    10     5     6 1   
    11     5     8 ar  
    12     6     7 1   
    13     7    40 1   
    14     7    41 1   
    15     7    42 1   
    16     8     9 ar  
    17     8    43 1   
    18     9    10 ar  
    19     9    44 1   
    20    10    11 1   
    21    11    12 1   
    22    11    45 1   
    23    11    46 1   
    24    12    13 1   
    25    12    16 2   
    26    13    14 1   
    27    13    47 1   
    28    14    15 2   
    29    14    18 1   
    30    16    17 1   
    31    17    18 1   
    32    17    22 1   
    33    18    19 2   
    34    19    20 1   
    35    19    21 1   
    36    20    48 1   
    37    20    49 1   
    38    20    50 1   
    39    21    22 2   
    40    22    23 1   
    41    23    24 1   
    42    23    27 1   
    43    23    51 1   
    44    24    25 1   
    45    24    26 1   
    46    24    52 1   
    47    25    53 1   
    48    25    54 1   
    49    25    55 1   
    50    26    56 1   
    51    27    28 1   
    52    27    57 1   
    53    27    58 1   
    54    28    29 1   
    55    28    59 1   
    56    28    60 1   
    57    29    30 1   
    58    29    61 1   
    59    29    62 1   
    60    30    31 ar  
    61    30    35 ar  
    62    31    32 ar  
    63    31    63 1   
    64    32    33 ar  
    65    32    64 1   
    66    33    34 ar  
    67    33    65 1   
    68    34    35 ar  
    69    34    66 1   
    70    35    67 1   
@<TRIPOS>SUBSTRUCTURE
     1 19F         1 TEMP              0 ****  ****    0 ROOT
