@<TRIPOS>MOLECULE
19F
   67    70     1     0     0
SMALL
bcc


@<TRIPOS>ATOM
      1 CAB          1.8420     0.6490    -0.9990 c3         1 19F       0.108700
      2 OAW          3.0920     0.3890    -0.3700 os         1 19F      -0.300900
      3 CBC          3.0530     0.1760     0.9920 ca         1 19F       0.109100
      4 CAN          1.8910     0.1430     1.7600 ca         1 19F      -0.166000
      5 CBB          4.3190    -0.0250     1.6120 ca         1 19F       0.116100
      6 OAV          5.4040     0.0250     0.7640 os         1 19F      -0.299900
      7 CAA          6.6790    -0.1540     1.3720 c3         1 19F       0.108700
      8 CAM          4.3840    -0.2550     2.9850 ca         1 19F      -0.179000
      9 CAL          3.2110    -0.2850     3.7440 ca         1 19F      -0.130000
     10 CAY          1.9700    -0.0870     3.1420 ca         1 19F      -0.109300
     11 CAR          0.7220    -0.1400     3.9510 c3         1 19F      -0.063400
     12 CBA          0.2840     1.2430     4.4090 cc         1 19F       0.446900
     13 NAU          1.2680     2.0700     4.9680 ns         1 19F      -0.500400
     14 CBE          0.9420     3.3650     5.4270 c          1 19F       0.755100
     15 OAE          1.8310     4.0900     5.8990 o          1 19F      -0.604500
     16 NAT         -1.0060     1.5700     4.2820 n2         1 19F      -0.566100
     17 NBI         -1.3820     2.7840     4.7150 na         1 19F       0.041200
     18 CBF         -0.4680     3.7220     5.2970 cc         1 19F      -0.342200
     19 CAZ         -1.2270     4.8650     5.6210 cd         1 19F       0.424600
     20 CAC         -0.7190     6.1010     6.2440 c3         1 19F      -0.138400
     21 NAS         -2.5540     4.6550     5.2600 nd         1 19F      -0.682000
     22 CBD         -2.6470     3.4090     4.7150 cc         1 19F       0.487800
     23 CBH         -3.9110     2.8040     4.1800 c3         1 19F      -0.082000
     24 CBG         -4.2790     1.5280     4.9540 c3         1 19F       0.141100
     25 CAD         -4.3680     1.7780     6.4480 c3         1 19F      -0.133100
     26 OAF         -5.5440     1.1170     4.4370 oh         1 19F      -0.605800
     27 CAQ         -3.8190     2.5170     2.6880 c3         1 19F      -0.079400
     28 CAO         -3.6680     3.7860     1.8770 c3         1 19F      -0.078400
     29 CAP         -3.5480     3.4670     0.3990 c3         1 19F      -0.035100
     30 CAX         -3.3740     4.6970    -0.4220 ca         1 19F      -0.077300
     31 CAJ         -4.3900     5.1270    -1.2840 ca         1 19F      -0.127500
     32 CAH         -4.2170     6.2720    -2.0600 ca         1 19F      -0.128500
     33 CAG         -3.0290     6.9970    -1.9830 ca         1 19F      -0.133000
     34 CAI         -2.0120     6.5740    -1.1260 ca         1 19F      -0.128500
     35 CAK         -2.1830     5.4300    -0.3500 ca         1 19F      -0.127500
     36 H1           2.1240     0.8160    -2.0700 h1         1 19F       0.047367
     37 H2           1.1620    -0.2320    -0.9040 h1         1 19F       0.047367
     38 H3           1.3640     1.5630    -0.5700 h1         1 19F       0.047367
     39 H4           0.9070     0.2950     1.2940 ha         1 19F       0.148000
     40 H5           6.8730     0.6450     2.1280 h1         1 19F       0.047033
     41 H6           7.3880    -0.0630     0.5100 h1         1 19F       0.047033
     42 H7           6.7550    -1.1650     1.8410 h1         1 19F       0.047033
     43 H8           5.3520    -0.4150     3.4810 ha         1 19F       0.145000
     44 H9           3.2780    -0.4780     4.8260 ha         1 19F       0.135000
     45 H10          0.8780    -0.7640     4.8740 hc         1 19F       0.084200
     46 H11         -0.0990    -0.6210     3.3530 hc         1 19F       0.084200
     47 H12          2.2190     1.7740     4.9540 hn         1 19F       0.347500
     48 H13         -1.2330     6.2840     7.2210 hc         1 19F       0.063700
     49 H14         -0.9090     6.9790     5.5780 hc         1 19F       0.063700
     50 H15          0.3830     6.0080     6.4220 hc         1 19F       0.063700
     51 H16         -4.7450     3.5500     4.3430 hc         1 19F       0.098700
     52 H17         -3.5290     0.7160     4.7390 h1         1 19F       0.050700
     53 H18         -3.3890     2.1410     6.8400 hc         1 19F       0.048033
     54 H19         -4.6380     0.8340     6.9800 hc         1 19F       0.048033
     55 H20         -5.1490     2.5460     6.6670 hc         1 19F       0.048033
     56 H21         -5.8650     0.4160     5.0160 ho         1 19F       0.403000
     57 H22         -4.7640     1.9880     2.3830 hc         1 19F       0.060200
     58 H23         -2.9690     1.8210     2.4740 hc         1 19F       0.060200
     59 H24         -4.5530     4.4530     2.0480 hc         1 19F       0.051200
     60 H25         -2.7580     4.3500     2.2150 hc         1 19F       0.051200
     61 H26         -4.4630     2.9070     0.0660 hc         1 19F       0.045200
     62 H27         -2.6670     2.7890     0.2350 hc         1 19F       0.045200
     63 H28         -5.3300     4.5590    -1.3470 ha         1 19F       0.131000
     64 H29         -5.0210     6.6040    -2.7330 ha         1 19F       0.130000
     65 H30         -2.8930     7.9010    -2.5940 ha         1 19F       0.130000
     66 H31         -1.0740     7.1450    -1.0610 ha         1 19F       0.130000
     67 H32         -1.3820     5.0990     0.3280 ha         1 19F       0.131000
@<TRIPOS>BOND
     1     1     2 1   
     2     1    36 1   
     3     1    37 1   
     4     1    38 1   
     5     2     3 1   
     6     3     4 ar  
     7     3     5 ar  
     8     4    10 ar  
     9     4    39 1   
    10     5     6 1   
    11     5     8 ar  
    12     6     7 1   
    13     7    40 1   
    14     7    41 1   
    15     7    42 1   
    16     8     9 ar  
    17     8    43 1   
    18     9    10 ar  
    19     9    44 1   
    20    10    11 1   
    21    11    12 1   
    22    11    45 1   
    23    11    46 1   
    24    12    13 1   
    25    12    16 2   
    26    13    14 1   
    27    13    47 1   
    28    14    15 2   
    29    14    18 1   
    30    16    17 1   
    31    17    18 1   
    32    17    22 1   
    33    18    19 2   
    34    19    20 1   
    35    19    21 1   
    36    20    48 1   
    37    20    49 1   
    38    20    50 1   
    39    21    22 2   
    40    22    23 1   
    41    23    24 1   
    42    23    27 1   
    43    23    51 1   
    44    24    25 1   
    45    24    26 1   
    46    24    52 1   
    47    25    53 1   
    48    25    54 1   
    49    25    55 1   
    50    26    56 1   
    51    27    28 1   
    52    27    57 1   
    53    27    58 1   
    54    28    29 1   
    55    28    59 1   
    56    28    60 1   
    57    29    30 1   
    58    29    61 1   
    59    29    62 1   
    60    30    31 ar  
    61    30    35 ar  
    62    31    32 ar  
    63    31    63 1   
    64    32    33 ar  
    65    32    64 1   
    66    33    34 ar  
    67    33    65 1   
    68    34    35 ar  
    69    34    66 1   
    70    35    67 1   
@<TRIPOS>SUBSTRUCTURE
     1 19F         1 TEMP              0 ****  ****    0 ROOT
