@<TRIPOS>MOLECULE
molecule
   43    45     1     0     0
SMALL
bcc


@<TRIPOS>ATOM
      1 OAC          0.0000     0.0000     0.0000 o          1 19G      -0.820300
      2 CAQ          1.2160     0.0000     0.0000 c          1 19G       0.899800
      3 OAD          1.8900     0.0000     1.1670 o          1 19G      -0.820300
      4 CAW          1.9500    -0.0060    -1.2720 cc         1 19G      -0.005600
      5 S            3.7000    -0.0060    -1.4150 ss         1 19G      -0.067500
      6 CAX          3.6050    -0.0150    -3.1720 ca         1 19G      -0.054100
      7 CAH          4.6180    -0.0200    -4.1370 ca         1 19G      -0.092000
      8 CAF          4.2990    -0.0270    -5.4740 ca         1 19G      -0.153000
      9 CAG          2.9690    -0.0280    -5.8740 ca         1 19G      -0.148000
     10 CAI          1.9670    -0.0230    -4.9550 ca         1 19G      -0.102000
     11 CAY          2.2630    -0.0160    -3.5700 ca         1 19G      -0.054800
     12 CAV          1.3780    -0.0160    -2.4800 cd         1 19G      -0.118400
     13 CAN         -0.1180    -0.0230    -2.6610 c3         1 19G      -0.016200
     14 CAL         -0.6300     1.4170    -2.7340 c3         1 19G      -0.067400
     15 CAM         -2.1500     1.4100    -2.9160 c3         1 19G       0.132400
     16 OAO         -2.6270     2.7550    -2.9830 os         1 19G      -0.321900
     17 CAT         -3.9650     2.9260    -3.1460 ca         1 19G       0.171100
     18 CAJ         -4.8010     1.8230    -3.2340 ca         1 19G      -0.193500
     19 CAR         -6.1620     2.0000    -3.3990 ca         1 19G      -0.035800
     20 CAA         -7.0710     0.8020    -3.4940 c3         1 19G      -0.047300
     21 CAU         -6.6900     3.2770    -3.4780 ca         1 19G      -0.024600
     22 Cl          -8.4000     3.4960    -3.6850 cl         1 19G      -0.136400
     23 CAS         -5.8580     4.3780    -3.3910 ca         1 19G      -0.035800
     24 CAB         -6.4360     5.7670    -3.4750 c3         1 19G      -0.047300
     25 CAK         -4.4980     4.2050    -3.2200 ca         1 19G      -0.193500
     26 H2           5.6570    -0.0190    -3.8300 ha         1 19G       0.119000
     27 H3           5.0870    -0.0310    -6.2170 ha         1 19G       0.112000
     28 H4           2.7270    -0.0330    -6.9300 ha         1 19G       0.111000
     29 H5           0.9350    -0.0240    -5.2840 ha         1 19G       0.122000
     30 H6          -0.5810    -0.5290    -1.8220 hc         1 19G       0.060700
     31 H7          -0.3690    -0.5420    -3.5780 hc         1 19G       0.060700
     32 H8          -0.3790     1.9370    -1.8170 hc         1 19G       0.060200
     33 H9          -0.1680     1.9230    -3.5730 hc         1 19G       0.060200
     34 H10         -2.6120     0.9040    -2.0780 h1         1 19G       0.036200
     35 H11         -2.4000     0.8910    -3.8340 h1         1 19G       0.036200
     36 H12         -4.3910     0.8240    -3.1480 ha         1 19G       0.149000
     37 H13         -7.6230     0.6930    -2.5690 hc         1 19G       0.045867
     38 H14         -7.7650     0.9390    -4.3150 hc         1 19G       0.045867
     39 H15         -6.4780    -0.0880    -3.6680 hc         1 19G       0.045867
     40 H16         -5.6340     6.4950    -3.4370 hc         1 19G       0.045867
     41 H17         -6.9790     5.8760    -4.4060 hc         1 19G       0.045867
     42 H18         -7.1100     5.9290    -2.6420 hc         1 19G       0.045867
     43 H19         -3.8460     5.0680    -3.1520 ha         1 19G       0.149000
@<TRIPOS>BOND
     1     1     2 1
     2     3     2 1
     3     2     4 1
     4     4     5 1
     5     4    12 2
     6     5     6 1
     7    13    14 1
     8    13    12 1
     9    14    15 1
    10    12    11 1
    11     6    11 ar
    12     6     7 ar
    13    11    10 ar
    14    15    16 1
    15    16    17 1
    16     7     8 ar
    17    10     9 ar
    18    17    25 ar
    19    17    18 ar
    20     8     9 ar
    21    25    23 ar
    22    18    19 ar
    23    23    24 1
    24    23    21 ar
    25    19    21 ar
    26    19    20 1
    27    21    22 1
    28     7    26 1
    29     8    27 1
    30     9    28 1
    31    10    29 1
    32    13    30 1
    33    13    31 1
    34    14    32 1
    35    14    33 1
    36    15    34 1
    37    15    35 1
    38    18    36 1
    39    20    37 1
    40    20    38 1
    41    20    39 1
    42    24    40 1
    43    24    41 1
    44    24    42 1
    45    25    43 1
@<TRIPOS>SUBSTRUCTURE
     1 19G         1 TEMP              0 ****  ****    0 ROOT
