@<TRIPOS>MOLECULE
19G
   43    45     1     0     0
SMALL
bcc


@<TRIPOS>ATOM
      1 OAC         0.0800   -1.4270   -0.1340 o         1 19G     -0.813300
      2 CAQ         1.2240   -0.8970   -0.0820 c         1 19G      0.927800
      3 OAD         1.8580   -0.6790    0.9870 o         1 19G     -0.813300
      4 CAW         1.8980   -0.5060   -1.3840 cc        1 19G     -0.082600
      5 S           3.5920   -0.4520   -1.4820 ss        1 19G      0.045500
      6 CAX         3.6060   -0.0030   -3.1020 ca        1 19G     -0.115100
      7 CAH         4.6940    0.2410   -3.9480 ca        1 19G     -0.094000
      8 CAF         4.4680    0.6060   -5.2640 ca        1 19G     -0.155000
      9 CAG         3.1570    0.7350   -5.7580 ca        1 19G     -0.153000
     10 CAI         2.0680    0.5000   -4.9360 ca        1 19G     -0.103000
     11 CAY         2.2770    0.1290   -3.6000 ca        1 19G     -0.063800
     12 CAV         1.3010   -0.1710   -2.5760 cd        1 19G     -0.113400
     13 CAN        -0.1540   -0.1450   -2.8280 c3        1 19G     -0.026200
     14 CAL        -0.6970    1.2710   -2.8900 c3        1 19G     -0.076400
     15 CAM        -2.2150    1.2300   -2.8660 c3        1 19G      0.125400
     16 OAO        -2.6560    2.5420   -3.2590 os        1 19G     -0.329900
     17 CAT        -4.0150    2.7420   -3.2830 ca        1 19G      0.156100
     18 CAJ        -4.9700    1.7760   -2.9460 ca        1 19G     -0.187500
     19 CAR        -6.3320    2.0890   -3.0100 ca        1 19G     -0.032800
     20 CAA        -7.3340    1.0590   -2.6470 c3        1 19G     -0.053800
     21 CAU        -6.7230    3.3730   -3.4150 ca        1 19G     -0.032600
     22 CL         -8.3860    3.7600   -3.4990 cl        1 19G     -0.123400
     23 CAS        -5.7700    4.3490   -3.7530 ca        1 19G     -0.032800
     24 CAB        -6.1820    5.7090   -4.1770 c3        1 19G     -0.053800
     25 CAK        -4.4150    4.0300   -3.6860 ca        1 19G     -0.187500
     26 H2          5.7190    0.1400   -3.5640 ha        1 19G      0.119000
     27 H3          5.3170    0.7990   -5.9350 ha        1 19G      0.110000
     28 H4          3.0040    1.0270   -6.8060 ha        1 19G      0.111000
     29 H5          1.0410    0.6000   -5.3150 ha        1 19G      0.125000
     30 H6         -0.3750   -0.6680   -3.7980 hc        1 19G      0.068700
     31 H7         -0.6700   -0.7130   -2.0000 hc        1 19G      0.068700
     32 H8         -0.3270    1.8640   -2.0150 hc        1 19G      0.055200
     33 H9         -0.3450    1.7870   -3.8210 hc        1 19G      0.055200
     34 H10        -2.6140    0.4780   -3.5960 h1        1 19G      0.044200
     35 H11        -2.5930    0.9990   -1.8360 h1        1 19G      0.044200
     36 H12        -4.6640    0.7690   -2.6240 ha        1 19G      0.151500
     37 H13        -8.0110    0.8540   -3.5140 hc        1 19G      0.047367
     38 H14        -7.9610    1.4150   -1.7910 hc        1 19G      0.047367
     39 H15        -6.8400    0.1020   -2.3490 hc        1 19G      0.047367
     40 H16        -6.8220    5.6520   -5.0930 hc        1 19G      0.047367
     41 H17        -5.2930    6.3470   -4.4050 hc        1 19G      0.047367
     42 H18        -6.7750    6.2030   -3.3670 hc        1 19G      0.047367
     43 H19        -3.6460    4.7740   -3.9410 ha        1 19G      0.151500
@<TRIPOS>BOND
     1    1    2 1   
     2    2    3 1   
     3    2    4 1   
     4    4    5 1   
     5    4   12 2   
     6    5    6 1   
     7    6    7 ar  
     8    6   11 ar  
     9    7    8 ar  
    10    7   26 1   
    11    8    9 ar  
    12    8   27 1   
    13    9   10 ar  
    14    9   28 1   
    15   10   11 ar  
    16   10   29 1   
    17   11   12 1   
    18   12   13 1   
    19   13   14 1   
    20   13   30 1   
    21   13   31 1   
    22   14   15 1   
    23   14   32 1   
    24   14   33 1   
    25   15   16 1   
    26   15   34 1   
    27   15   35 1   
    28   16   17 1   
    29   17   18 ar  
    30   17   25 ar  
    31   18   19 ar  
    32   18   36 1   
    33   19   20 1   
    34   19   21 ar  
    35   20   37 1   
    36   20   38 1   
    37   20   39 1   
    38   21   22 1   
    39   21   23 ar  
    40   23   24 1   
    41   23   25 ar  
    42   24   40 1   
    43   24   41 1   
    44   24   42 1   
    45   25   43 1   
@<TRIPOS>SUBSTRUCTURE
     1 19G         1 TEMP              0 ****  ****    0 ROOT
