@<TRIPOS>MOLECULE
19G
   43    45     1     0     0
SMALL
bcc


@<TRIPOS>ATOM
      1 OAC          0.6150    -0.2170     0.4430 o          1 19G      -0.807800
      2 CAQ          1.6760     0.3680     0.1050 c          1 19G       0.927800
      3 OAD          2.4040     1.0520     0.8770 o          1 19G      -0.807800
      4 CAW          2.1180     0.2540    -1.3450 cc         1 19G      -0.069600
      5 S            1.2940     1.0660    -2.5810 ss         1 19G       0.019500
      6 CAX          2.3210     0.5110    -3.7950 ca         1 19G      -0.109100
      7 CAH          2.2890     0.7690    -5.1690 ca         1 19G      -0.094000
      8 CAF          3.2460     0.2010    -5.9930 ca         1 19G      -0.157000
      9 CAG          4.2470    -0.6290    -5.4590 ca         1 19G      -0.149000
     10 CAI          4.2940    -0.8980    -4.1010 ca         1 19G      -0.109000
     11 CAY          3.3320    -0.3340    -3.2490 ca         1 19G      -0.054800
     12 CAV          3.1870    -0.4680    -1.8170 cd         1 19G      -0.136400
     13 CAN          4.0820    -1.3010    -0.9840 c3         1 19G       0.000800
     14 CAL          5.0120    -0.4700    -0.1190 c3         1 19G      -0.101400
     15 CAM          6.0470     0.2820    -0.9320 c3         1 19G       0.128400
     16 OAO          7.2120    -0.5680    -0.9950 os         1 19G      -0.333900
     17 CAT          8.2830    -0.0810    -1.7000 ca         1 19G       0.159100
     18 CAJ          8.3080     1.1520    -2.3640 ca         1 19G      -0.189500
     19 CAR          9.4570     1.5500    -3.0540 ca         1 19G      -0.033300
     20 CAA          9.4700     2.8560    -3.7550 c3         1 19G      -0.053300
     21 CAU         10.5760     0.7050    -3.0710 ca         1 19G      -0.034600
     22 Cl          11.9850     1.1890    -3.9100 cl         1 19G      -0.127400
     23 CAS         10.5590    -0.5340    -2.4080 ca         1 19G      -0.033300
     24 CAB         11.7400    -1.4300    -2.4270 c3         1 19G      -0.053300
     25 CAK          9.4110    -0.9250    -1.7240 ca         1 19G      -0.189500
     26 H2           1.5060     1.4190    -5.5870 ha         1 19G       0.119000
     27 H3           3.2300     0.3980    -7.0740 ha         1 19G       0.111000
     28 H4           4.9980    -1.0670    -6.1320 ha         1 19G       0.113000
     29 H5           5.0800    -1.5450    -3.6850 ha         1 19G       0.130000
     30 H6           3.4480    -1.9350    -0.3030 hc         1 19G       0.043700
     31 H7           4.6850    -1.9910    -1.6310 hc         1 19G       0.043700
     32 H8           5.5300    -1.1380     0.6170 hc         1 19G       0.087200
     33 H9           4.3920     0.2800     0.4560 hc         1 19G       0.087200
     34 H10          6.3350     1.2430    -0.4320 h1         1 19G       0.046700
     35 H11          5.6800     0.4820    -1.9730 h1         1 19G       0.046700
     36 H12          7.4290     1.8130    -2.3540 ha         1 19G       0.151000
     37 H13          8.4950     3.3890    -3.6350 hc         1 19G       0.046367
     38 H14         10.2830     3.5070    -3.3470 hc         1 19G       0.046367
     39 H15          9.6580     2.7060    -4.8480 hc         1 19G       0.046367
     40 H16         11.5450    -2.3670    -1.8500 hc         1 19G       0.046367
     41 H17         12.6250    -0.9140    -1.9760 hc         1 19G       0.046367
     42 H18         11.9980    -1.7090    -3.4800 hc         1 19G       0.046367
     43 H19          9.3670    -1.8890    -1.1970 ha         1 19G       0.151000
@<TRIPOS>BOND
     1     1     2 1   
     2     2     3 1   
     3     2     4 1   
     4     4     5 1   
     5     4    12 2   
     6     5     6 1   
     7     6     7 ar  
     8     6    11 ar  
     9     7     8 ar  
    10     7    26 1   
    11     8     9 ar  
    12     8    27 1   
    13     9    10 ar  
    14     9    28 1   
    15    10    11 ar  
    16    10    29 1   
    17    11    12 1   
    18    12    13 1   
    19    13    14 1   
    20    13    30 1   
    21    13    31 1   
    22    14    15 1   
    23    14    32 1   
    24    14    33 1   
    25    15    16 1   
    26    15    34 1   
    27    15    35 1   
    28    16    17 1   
    29    17    18 ar  
    30    17    25 ar  
    31    18    19 ar  
    32    18    36 1   
    33    19    20 1   
    34    19    21 ar  
    35    20    37 1   
    36    20    38 1   
    37    20    39 1   
    38    21    22 1   
    39    21    23 ar  
    40    23    24 1   
    41    23    25 ar  
    42    24    40 1   
    43    24    41 1   
    44    24    42 1   
    45    25    43 1   
@<TRIPOS>SUBSTRUCTURE
     1 19G         1 TEMP              0 ****  ****    0 ROOT
