@<TRIPOS>MOLECULE
19H
   44    46     1     0     0
SMALL
bcc


@<TRIPOS>ATOM
      1 OAC         0.1400   -1.2970   -0.2710 o         1 19H     -0.812300
      2 CAQ         1.3570   -1.0300   -0.0700 c         1 19H      0.928800
      3 OAD         1.9560   -1.1410    1.0300 o         1 19H     -0.812300
      4 CAW         2.1590   -0.5350   -1.2740 cc        1 19H     -0.059300
      5 NAO         1.5480   -0.4460   -2.5300 na        1 19H     -0.162400
      6 CAY         2.4730    0.0110   -3.4610 ca        1 19H     -0.061200
      7 CAK         2.3530    0.2610   -4.8350 ca        1 19H     -0.140000
      8 CAT         3.4850    0.7160   -5.5000 ca        1 19H      0.012400
      9 CL2         3.3860    1.0340   -7.1800 cl        1 19H     -0.151400
     10 CAG         4.7130    0.9260   -4.8450 ca        1 19H     -0.169000
     11 CAH         4.8350    0.6810   -3.4850 ca        1 19H     -0.092000
     12 CAZ         3.7330    0.2240   -2.7640 ca        1 19H     -0.077800
     13 CAX         3.5000   -0.1280   -1.3830 cd        1 19H     -0.170400
     14 CAN         4.4840   -0.1010   -0.2940 c3        1 19H     -0.011200
     15 CAL         4.9260    1.3120    0.0460 c3        1 19H     -0.076400
     16 CAM         5.7620    1.2880    1.3130 c3        1 19H      0.125400
     17 OAP         6.3680    2.5900    1.4160 os        1 19H     -0.328900
     18 CAU         7.1620    2.8020    2.5160 ca        1 19H      0.155100
     19 CAI         7.7490    4.0810    2.5820 ca        1 19H     -0.187500
     20 CAR         8.5790    4.4120    3.6510 ca        1 19H     -0.032800
     21 CAA         9.1910    5.7600    3.7130 c3        1 19H     -0.053800
     22 CAV         8.8200    3.4570    4.6550 ca        1 19H     -0.032600
     23 CL1         9.8390    3.8590    5.9660 cl        1 19H     -0.123400
     24 CAS         8.2370    2.1840    4.5970 ca        1 19H     -0.032800
     25 CAB         8.4850    1.1770    5.6560 c3        1 19H     -0.053800
     26 CAJ         7.4050    1.8580    3.5200 ca        1 19H     -0.187500
     27 H2          0.6020   -0.6780   -2.6910 hn        1 19H      0.313700
     28 H3          1.4030    0.1020   -5.3610 ha        1 19H      0.135000
     29 H4          5.5770    1.2880   -5.4190 ha        1 19H      0.125000
     30 H5          5.7940    0.8470   -2.9730 ha        1 19H      0.127000
     31 H6          5.3860   -0.7050   -0.5860 hc        1 19H      0.063700
     32 H7          4.0220   -0.5800    0.6180 hc        1 19H      0.063700
     33 H8          5.5220    1.7490   -0.7960 hc        1 19H      0.053700
     34 H9          4.0320    1.9680    0.2020 hc        1 19H      0.053700
     35 H10         6.5720    0.5140    1.2530 h1        1 19H      0.043200
     36 H11         5.1210    1.1010    2.2130 h1        1 19H      0.043200
     37 H12         7.5400    4.8070    1.7830 ha        1 19H      0.151000
     38 H13         8.8710    6.2880    4.6460 hc        1 19H      0.047367
     39 H14        10.3070    5.6790    3.7230 hc        1 19H      0.047367
     40 H15         8.8890    6.3810    2.8340 hc        1 19H      0.047367
     41 H16         7.9390    0.2240    5.4440 hc        1 19H      0.047367
     42 H17         8.1430    1.5670    6.6480 hc        1 19H      0.047367
     43 H18         9.5780    0.9510    5.7280 hc        1 19H      0.047367
     44 H19         6.9460    0.8600    3.4780 ha        1 19H      0.151000
@<TRIPOS>BOND
     1    1    2 1   
     2    2    3 1   
     3    2    4 1   
     4    4    5 1   
     5    4   13 2   
     6    5    6 1   
     7    5   27 1   
     8    6    7 ar  
     9    6   12 ar  
    10    7    8 ar  
    11    7   28 1   
    12    8    9 1   
    13    8   10 ar  
    14   10   11 ar  
    15   10   29 1   
    16   11   12 ar  
    17   11   30 1   
    18   12   13 1   
    19   13   14 1   
    20   14   15 1   
    21   14   31 1   
    22   14   32 1   
    23   15   16 1   
    24   15   33 1   
    25   15   34 1   
    26   16   17 1   
    27   16   35 1   
    28   16   36 1   
    29   17   18 1   
    30   18   19 ar  
    31   18   26 ar  
    32   19   20 ar  
    33   19   37 1   
    34   20   21 1   
    35   20   22 ar  
    36   21   38 1   
    37   21   39 1   
    38   21   40 1   
    39   22   23 1   
    40   22   24 ar  
    41   24   25 1   
    42   24   26 ar  
    43   25   41 1   
    44   25   42 1   
    45   25   43 1   
    46   26   44 1   
@<TRIPOS>SUBSTRUCTURE
     1 19H         1 TEMP              0 ****  ****    0 ROOT
