@<TRIPOS>MOLECULE
19H
   44    46     1     0     0
SMALL
bcc


@<TRIPOS>ATOM
      1 OAC         -0.1000     0.3350     0.0930 o          1 19H      -0.811300
      2 CAQ          1.1380     0.5610     0.1810 c          1 19H       0.927800
      3 OAD          1.7370     0.9630     1.2120 o          1 19H      -0.811300
      4 CAW          1.9720     0.3330    -1.0780 cc         1 19H      -0.064300
      5 NAO          1.3410     0.0540    -2.2960 na         1 19H      -0.162400
      6 CAY          2.3040    -0.1190    -3.2830 ca         1 19H      -0.062200
      7 CAK          2.1830    -0.4130    -4.6490 ca         1 19H      -0.140000
      8 CAT          3.3580    -0.5100    -5.3840 ca         1 19H       0.012400
      9 Cl2          3.2600    -0.8680    -7.0560 cl         1 19H      -0.150400
     10 CAG          4.6280    -0.3260    -4.8080 ca         1 19H      -0.168000
     11 CAH          4.7520    -0.0350    -3.4570 ca         1 19H      -0.094000
     12 CAZ          3.6070     0.0740    -2.6670 ca         1 19H      -0.083800
     13 CAX          3.3640     0.3560    -1.2720 cd         1 19H      -0.176400
     14 CAN          4.3910     0.5890    -0.2460 c3         1 19H       0.013800
     15 CAL          4.4700     2.0400     0.1940 c3         1 19H      -0.089400
     16 CAM          4.8750     2.9720    -0.9320 c3         1 19H       0.125400
     17 OAP          6.2690     3.2810    -0.7190 os         1 19H      -0.332900
     18 CAU          6.8570     4.1090    -1.6410 ca         1 19H       0.158100
     19 CAI          6.2110     4.6390    -2.7650 ca         1 19H      -0.189000
     20 CAR          6.9100     5.4750    -3.6420 ca         1 19H      -0.032800
     21 CAA          6.2160     6.0260    -4.8300 c3         1 19H      -0.053300
     22 CAV          8.2540     5.7750    -3.3810 ca         1 19H      -0.034600
     23 Cl1          9.1120     6.7990    -4.4480 cl         1 19H      -0.126400
     24 CAS          8.9100     5.2460    -2.2560 ca         1 19H      -0.032800
     25 CAB         10.3330     5.5600    -1.9800 c3         1 19H      -0.053300
     26 CAJ          8.2090     4.4130    -1.3880 ca         1 19H      -0.189000
     27 H2           0.3640    -0.0530    -2.3880 hn         1 19H       0.313700
     28 H3           1.1990    -0.5600    -5.1140 ha         1 19H       0.135000
     29 H4           5.5260    -0.4130    -5.4360 ha         1 19H       0.127000
     30 H5           5.7440     0.1100    -3.0060 ha         1 19H       0.130000
     31 H6           4.1340    -0.0230     0.6640 hc         1 19H       0.044700
     32 H7           5.3920     0.2550    -0.6290 hc         1 19H       0.044700
     33 H8           5.2040     2.1310     1.0370 hc         1 19H       0.077700
     34 H9           3.4560     2.3410     0.5810 hc         1 19H       0.077700
     35 H10          4.2920     3.9290    -0.9010 h1         1 19H       0.045700
     36 H11          4.7540     2.4820    -1.9340 h1         1 19H       0.045700
     37 H12          5.1570     4.4010    -2.9710 ha         1 19H       0.150500
     38 H13          6.2230     7.1440    -4.7990 hc         1 19H       0.046533
     39 H14          5.1540     5.6790    -4.8760 hc         1 19H       0.046533
     40 H15          6.7350     5.6990    -5.7660 hc         1 19H       0.046533
     41 H16         10.4690     6.6630    -1.8580 hc         1 19H       0.046533
     42 H17         10.6840     5.0540    -1.0480 hc         1 19H       0.046533
     43 H18         10.9750     5.2210    -2.8310 hc         1 19H       0.046533
     44 H19          8.6950     3.9840    -0.5000 ha         1 19H       0.150500
@<TRIPOS>BOND
     1     1     2 1   
     2     2     3 1   
     3     2     4 1   
     4     4     5 1   
     5     4    13 2   
     6     5     6 1   
     7     5    27 1   
     8     6     7 ar  
     9     6    12 ar  
    10     7     8 ar  
    11     7    28 1   
    12     8     9 1   
    13     8    10 ar  
    14    10    11 ar  
    15    10    29 1   
    16    11    12 ar  
    17    11    30 1   
    18    12    13 1   
    19    13    14 1   
    20    14    15 1   
    21    14    31 1   
    22    14    32 1   
    23    15    16 1   
    24    15    33 1   
    25    15    34 1   
    26    16    17 1   
    27    16    35 1   
    28    16    36 1   
    29    17    18 1   
    30    18    19 ar  
    31    18    26 ar  
    32    19    20 ar  
    33    19    37 1   
    34    20    21 1   
    35    20    22 ar  
    36    21    38 1   
    37    21    39 1   
    38    21    40 1   
    39    22    23 1   
    40    22    24 ar  
    41    24    25 1   
    42    24    26 ar  
    43    25    41 1   
    44    25    42 1   
    45    25    43 1   
    46    26    44 1   
@<TRIPOS>SUBSTRUCTURE
     1 19H         1 TEMP              0 ****  ****    0 ROOT
