@<TRIPOS>MOLECULE
molecule
   44    46     1     0     0
SMALL
bcc


@<TRIPOS>ATOM
      1 OAC          0.0000     0.0000     0.0000 o          1 19H      -0.821800
      2 CAQ          1.3480     0.0000     0.0000 c          1 19H       0.895800
      3 OAD          1.9560     0.0000     1.0520 o          1 19H      -0.821800
      4 CAW          2.0820    -0.0010    -1.2720 cc         1 19H      -0.038300
      5 NAO          1.5080    -0.0000    -2.5300 na         1 19H      -0.145400
      6 CAY          2.5080    -0.0010    -3.4730 ca         1 19H      -0.056200
      7 CAK          2.5030    -0.0000    -4.8650 ca         1 19H      -0.132000
      8 CAT          3.6970    -0.0010    -5.5540 ca         1 19H       0.011400
      9 Cl2          3.6880     0.0010    -7.2900 cl         1 19H      -0.156400
     10 CAG          4.9080    -0.0010    -4.8710 ca         1 19H      -0.182000
     11 CAH          4.9380    -0.0020    -3.5080 ca         1 19H      -0.081000
     12 CAZ          3.7370    -0.0010    -2.7840 ca         1 19H      -0.071800
     13 CAX          3.4360     0.0040    -1.4010 cd         1 19H      -0.167400
     14 CAN          4.4360     0.0110    -0.2740 c3         1 19H       0.007800
     15 CAL          4.7720     1.4550     0.1020 c3         1 19H      -0.071400
     16 CAM          5.7860     1.4620     1.2460 c3         1 19H       0.131400
     17 OAP          6.1000     2.8120     1.5970 os         1 19H      -0.322900
     18 CAU          6.9930     2.9960     2.6040 ca         1 19H       0.171100
     19 CAI          7.3430     4.2790     2.9960 ca         1 19H      -0.193500
     20 CAR          8.2510     4.4650     4.0210 ca         1 19H      -0.035800
     21 CAA          8.6310     5.8600     4.4470 c3         1 19H      -0.047300
     22 CAV          8.8120     3.3710     4.6550 ca         1 19H      -0.023600
     23 Cl1          9.9540     3.6060     5.9420 cl         1 19H      -0.135400
     24 CAS          8.4650     2.0900     4.2660 ca         1 19H      -0.035800
     25 CAB          9.0770     0.9000     4.9590 c3         1 19H      -0.047300
     26 CAJ          7.5540     1.9010     3.2450 ca         1 19H      -0.193500
     27 H2           0.5250     0.0010    -2.7220 hn         1 19H       0.315700
     28 H3           1.6080    -0.0020    -5.4750 ha         1 19H       0.128000
     29 H4           5.8040     0.0270    -5.4790 ha         1 19H       0.122000
     30 H5           5.9830    -0.0990    -3.2430 ha         1 19H       0.126000
     31 H6           5.3380    -0.5000    -0.5880 hc         1 19H       0.053200
     32 H7           4.0150    -0.4980     0.5860 hc         1 19H       0.053200
     33 H8           3.8690     1.9660     0.4160 hc         1 19H       0.061200
     34 H9           5.1930     1.9630    -0.7570 hc         1 19H       0.061200
     35 H10          6.6890     0.9520     0.9320 h1         1 19H       0.035200
     36 H11          5.3650     0.9540     2.1050 h1         1 19H       0.035200
     37 H12          6.8950     5.1360     2.5080 ha         1 19H       0.148500
     38 H13          9.6910     6.0110     4.2850 hc         1 19H       0.045867
     39 H14          8.0700     6.5810     3.8650 hc         1 19H       0.045867
     40 H15          8.4040     5.9910     5.4990 hc         1 19H       0.045867
     41 H16          8.5010     0.0120     4.7290 hc         1 19H       0.045867
     42 H17          9.0740     1.0650     6.0300 hc         1 19H       0.045867
     43 H18         10.0960     0.7670     4.6180 hc         1 19H       0.045867
     44 H19          7.2820     0.8970     2.9410 ha         1 19H       0.148500
@<TRIPOS>BOND
     1    25    24 1   
     2    26    24 ar  
     3    26    18 ar  
     4    14    13 1   
     5    14    15 1   
     6    11    10 ar  
     7    11    12 ar  
     8    10     8 ar  
     9    24    22 ar  
    10    12    13 1   
    11    12     6 ar  
    12    13     4 2   
    13     8     9 1   
    14     8     7 ar  
    15     3     2 1   
    16    17    18 1   
    17    17    16 1   
    18     6     7 ar  
    19     6     5 1   
    20     4     5 1   
    21     4     2 1   
    22    18    19 ar  
    23     2     1 1   
    24    15    16 1   
    25    22    23 1   
    26    22    20 ar  
    27    19    20 ar  
    28    20    21 1   
    29     5    27 1   
    30     7    28 1   
    31    10    29 1   
    32    11    30 1   
    33    14    31 1   
    34    14    32 1   
    35    15    33 1   
    36    15    34 1   
    37    16    35 1   
    38    16    36 1   
    39    19    37 1   
    40    21    38 1   
    41    21    39 1   
    42    21    40 1   
    43    25    41 1   
    44    25    42 1   
    45    25    43 1   
    46    26    44 1   
@<TRIPOS>SUBSTRUCTURE
     1 19H         1 TEMP              0 ****  ****    0 ROOT
