@<TRIPOS>MOLECULE
19K
   44    46     1     0     0
SMALL
bcc


@<TRIPOS>ATOM
      1 S            0.0000     0.0000     0.0000 ss         1 19K      -0.289300
      2 C1           2.5700    -0.0010    -1.2370 c3         1 19K      -0.002400
      3 N1           2.1590     0.0000     1.2110 nc         1 19K      -0.568000
      4 O1          -3.3120     1.8090    10.6370 o          1 19K      -0.443500
      5 C2           1.7090     0.0000     0.0000 cd         1 19K       0.455700
      6 N2          -3.3830     0.0030     4.2220 nb         1 19K      -0.701000
      7 C3           1.2750    -0.0000     2.1820 cc         1 19K       0.391600
      8 N3          -1.9970     0.0040     6.1030 nu         1 19K      -0.288300
      9 C4           1.6600     0.0010     3.6390 c3         1 19K      -0.023400
     10 N4          -6.4420    -0.4560     9.4290 nh         1 19K      -0.391000
     11 C5          -0.0100     0.0000     1.7620 cd         1 19K      -0.211900
     12 N5          -4.2630     1.1320    10.2910 no         1 19K       1.046200
     13 C6          -1.2070     0.0010     2.6250 ca         1 19K       0.579800
     14 N6          -1.0840     0.0020     3.9520 nb         1 19K      -0.682000
     15 C7          -2.4890     0.0010     2.0630 ca         1 19K      -0.402600
     16 C8          -3.5790     0.0030     2.9110 ca         1 19K       0.494200
     17 C9          -2.1570     0.0030     4.7270 ca         1 19K       0.706900
     18 C10         -3.1140    -0.1120     6.9400 ca         1 19K      -0.013400
     19 C11         -4.2000    -0.8830     6.5460 ca         1 19K      -0.047000
     20 C12         -5.3010    -0.9970     7.3700 ca         1 19K      -0.136000
     21 C13         -5.3240    -0.3400     8.5940 ca         1 19K       0.080600
     22 C14         -7.6500     0.0450     8.7620 c3         1 19K       0.184600
     23 C15         -6.6220    -1.8420     9.8770 c3         1 19K       0.184600
     24 C16         -4.2380     0.4310     8.9870 ca         1 19K      -0.406200
     25 C17         -3.1350     0.5410     8.1650 ca         1 19K      -0.051000
     26 H1           3.3220    -0.7760    -1.1530 hc         1 19K       0.020367
     27 H1A          1.9520    -0.1900    -2.1070 hc         1 19K       0.020367
     28 H1B          3.0540     0.9620    -1.3410 hc         1 19K       0.020367
     29 HN3         -1.0820     0.0890     6.4990 hn         1 19K       0.298800
     30 H4           1.2590     0.8860     4.1180 hc         1 19K       0.021700
     31 H4A          1.2590    -0.8830     4.1190 hc         1 19K       0.021700
     32 H4B          2.7400     0.0010     3.7270 hc         1 19K       0.021700
     33 H7          -2.6230     0.0010     0.9880 ha         1 19K       0.138000
     34 H8          -4.5850     0.0030     2.5100 h4         1 19K      -0.014900
     35 H11         -4.1820    -1.3960     5.5910 ha         1 19K       0.138000
     36 H12         -6.1480    -1.5990     7.0630 ha         1 19K       0.121000
     37 H14         -8.0390    -0.7180     8.0980 h1         1 19K       0.005533
     38 H14A        -8.3980     0.2910     9.5060 h1         1 19K       0.005533
     39 H14B        -7.4060     0.9310     8.1890 h1         1 19K       0.005533
     40 H15         -7.2040    -1.8530    10.7910 h1         1 19K       0.005533
     41 H15A        -7.1420    -2.4050     9.1110 h1         1 19K       0.005533
     42 H15B        -5.6540    -2.2910    10.0610 h1         1 19K       0.005533
     43 H17         -2.2870     1.1390     8.4740 ha         1 19K       0.137000
     44 O2          -5.2350     1.0320    11.0190 o          1 19K      -0.443500
@<TRIPOS>BOND
     1     1     5 1   
     2     1    11 1   
     3     2     5 1   
     4     2    26 1   
     5     2    27 1   
     6     2    28 1   
     7     3     5 2   
     8     3     7 1   
     9     4    12 1   
    10     6    16 ar  
    11     6    17 ar  
    12     7     9 1   
    13     7    11 2   
    14     8    17 1   
    15     8    18 1   
    16     8    29 1   
    17     9    30 1   
    18     9    31 1   
    19     9    32 1   
    20    10    21 1   
    21    10    22 1   
    22    10    23 1   
    23    11    13 1   
    24    12    24 1   
    25    12    44 1   
    26    13    14 ar  
    27    13    15 ar  
    28    14    17 ar  
    29    15    16 ar  
    30    15    33 1   
    31    16    34 1   
    32    18    19 ar  
    33    18    25 ar  
    34    19    20 ar  
    35    19    35 1   
    36    20    21 ar  
    37    20    36 1   
    38    21    24 ar  
    39    22    37 1   
    40    22    38 1   
    41    22    39 1   
    42    23    40 1   
    43    23    41 1   
    44    23    42 1   
    45    24    25 ar  
    46    25    43 1   
@<TRIPOS>SUBSTRUCTURE
     1 19K         1 TEMP              0 ****  ****    0 ROOT
