@<TRIPOS>MOLECULE
19K
   44    46     1     0     0
SMALL
bcc


@<TRIPOS>ATOM
      1 S            0.3750     0.8350    -0.0320 ss         1 19K      -0.028300
      2 C1           2.9230     0.3770    -1.0320 c3         1 19K      -0.134400
      3 N1           2.2040    -0.5020     1.1880 nc         1 19K      -0.639000
      4 O1          -7.3190    -3.0810    -1.1690 o          1 19K      -0.209000
      5 C2           1.9510     0.1820     0.0650 cd         1 19K       0.392700
      6 N2          -3.8090     0.7980     3.2760 nb         1 19K      -0.736000
      7 C3           1.0840    -0.4910     2.0110 cc         1 19K       0.388600
      8 N3          -4.7880     0.7040     1.1050 nu         1 19K      -0.700300
      9 C4           1.0990    -1.2020     3.3110 c3         1 19K      -0.134400
     10 N4          -4.9640    -1.4880    -4.1410 nh         1 19K      -0.659000
     11 C5          -0.0070     0.2180     1.4860 cd         1 19K      -0.296900
     12 N5          -7.0090    -2.3180    -2.0460 no         1 19K       0.310200
     13 C6          -1.3050     0.4180     2.1060 ca         1 19K       0.568800
     14 N6          -2.4000     0.4110     1.2970 nb         1 19K      -0.743000
     15 C7          -1.4060     0.6320     3.4970 ca         1 19K      -0.393600
     16 C8          -2.6990     0.8130     4.0220 ca         1 19K       0.463200
     17 C9          -3.6220     0.6120     1.9060 ca         1 19K       0.863900
     18 C10         -4.8310     0.1300    -0.1870 ca         1 19K       0.118600
     19 C11         -3.9910     0.5930    -1.2240 ca         1 19K      -0.066000
     20 C12         -4.0800     0.0550    -2.4970 ca         1 19K      -0.126000
     21 C13         -5.0200    -0.9500    -2.8280 ca         1 19K       0.176600
     22 C14         -5.7670    -0.7860    -5.1170 c3         1 19K       0.167100
     23 C15         -4.9910    -2.9260    -4.2660 c3         1 19K       0.167100
     24 C16         -5.9040    -1.3530    -1.7950 ca         1 19K      -0.186200
     25 C17         -5.7860    -0.8560    -0.4880 ca         1 19K      -0.114000
     26 H1           3.8380     0.9010    -0.6560 hc         1 19K       0.061700
     27 H1A          2.4670     0.9910    -1.8470 hc         1 19K       0.061700
     28 H1B          3.2360    -0.6110    -1.4570 hc         1 19K       0.061700
     29 HN3         -5.6420     0.6050     1.6210 hn         1 19K       0.440800
     30 H4           0.0620    -1.5140     3.5890 hc         1 19K       0.058033
     31 H4A          1.7480    -2.1130     3.2670 hc         1 19K       0.058033
     32 H4B          1.5010    -0.5250     4.1070 hc         1 19K       0.058033
     33 H7          -0.5180     0.6660     4.1380 ha         1 19K       0.163000
     34 H8          -2.8560     0.9750     5.1060 h4         1 19K       0.032100
     35 H11         -3.2470     1.3820    -1.0250 ha         1 19K       0.164000
     36 H12         -3.3910     0.4170    -3.2790 ha         1 19K       0.159000
     37 H14         -5.4450    -1.1260    -6.1360 h1         1 19K       0.045867
     38 H14A        -6.8670    -0.9880    -4.9960 h1         1 19K       0.045867
     39 H14B        -5.5820     0.3160    -5.0220 h1         1 19K       0.045867
     40 H15         -6.0200    -3.3360    -4.4610 h1         1 19K       0.045867
     41 H15A        -4.3370    -3.1900    -5.1410 h1         1 19K       0.045867
     42 H15B        -4.5720    -3.4090    -3.3450 h1         1 19K       0.045867
     43 H17         -6.4600    -1.2430     0.2980 ha         1 19K       0.166000
     44 O2          -7.5920    -2.2940    -3.0980 o          1 19K      -0.209000
@<TRIPOS>BOND
     1     1     5 1   
     2     1    11 1   
     3     2     5 1   
     4     2    26 1   
     5     2    27 1   
     6     2    28 1   
     7     3     5 2   
     8     3     7 1   
     9     4    12 1   
    10     6    16 ar  
    11     6    17 ar  
    12     7     9 1   
    13     7    11 2   
    14     8    17 1   
    15     8    18 1   
    16     8    29 1   
    17     9    30 1   
    18     9    31 1   
    19     9    32 1   
    20    10    21 1   
    21    10    22 1   
    22    10    23 1   
    23    11    13 1   
    24    12    24 1   
    25    12    44 1   
    26    13    14 ar  
    27    13    15 ar  
    28    14    17 ar  
    29    15    16 ar  
    30    15    33 1   
    31    16    34 1   
    32    18    19 ar  
    33    18    25 ar  
    34    19    20 ar  
    35    19    35 1   
    36    20    21 ar  
    37    20    36 1   
    38    21    24 ar  
    39    22    37 1   
    40    22    38 1   
    41    22    39 1   
    42    23    40 1   
    43    23    41 1   
    44    23    42 1   
    45    24    25 ar  
    46    25    43 1   
@<TRIPOS>SUBSTRUCTURE
     1 19K         1 TEMP              0 ****  ****    0 ROOT
