@<TRIPOS>MOLECULE
19N
   31    30     1     0     0
SMALL
bcc


@<TRIPOS>ATOM
      1 N1           0.0000     0.0000     0.0000 nz         1 19N       0.081400
      2 C1           1.3740     0.0000     0.0000 c2         1 19N       0.251100
      3 N2           2.0260     0.0000     1.1290 n2         1 19N      -0.621100
      4 N3           2.0630     0.0000    -1.1900 nu         1 19N      -0.404200
      5 C2           3.5270     0.0000    -1.1890 c3         1 19N       0.159800
      6 C3           4.0380     0.0010    -2.6320 c3         1 19N      -0.032400
      7 C4           5.5690     0.0000    -2.6310 c3         1 19N      -0.076400
      8 C5           6.0780     0.0010    -4.0740 c3         1 19N       0.031600
      9 C6           7.6090     0.0000    -4.0730 c3         1 19N      -0.117700
     10 N4           8.0990     0.0000    -5.4580 nz         1 19N       0.135400
     11 P            8.2160    -1.4890    -3.2130 p5         1 19N       0.406700
     12 O1           7.7890    -1.4230    -1.6620 o          1 19N      -0.658833
     13 O3           9.8200    -1.5560    -3.3260 o          1 19N      -0.658833
     14 O2           7.6250    -2.6940    -3.8370 o          1 19N      -0.658833
     15 H1          -0.3340    -0.3730     0.8660 hn         1 19N       0.217467
     16 H2          -0.3340    -0.5640    -0.7570 hn         1 19N       0.217467
     17 H3           1.5260    -0.0000     1.9960 hn         1 19N       0.336400
     18 H4           1.5630     0.0400    -2.0570 hn         1 19N       0.288800
     19 H5           3.8880     0.8850    -0.6780 h1         1 19N       0.055700
     20 H6           3.8890    -0.8840    -0.6780 h1         1 19N       0.055700
     21 H7           3.6770     0.8850    -3.1430 hc         1 19N       0.002200
     22 H8           3.6770    -0.8840    -3.1430 hc         1 19N       0.002200
     23 H9           5.9290    -0.8840    -2.1200 hc         1 19N       0.083700
     24 H10          5.9300     0.8850    -2.1200 hc         1 19N       0.083700
     25 H11          5.7170    -0.8840    -4.5840 hc         1 19N      -0.011300
     26 H12          5.7170     0.8850    -4.5840 hc         1 19N      -0.011300
     27 H13          7.9700     0.8850    -3.5620 hx         1 19N       0.073700
     28 H14          7.7400     0.8010    -5.9390 hn         1 19N       0.183800
     29 H15          9.0990     0.0320    -5.4580 hn         1 19N       0.183800
     30 H131        -0.3340     0.9370    -0.1090 hn         1 19N       0.217467
     31 H43          7.7760    -0.8240    -5.9260 hn         1 19N       0.183800
@<TRIPOS>BOND
     1     1     2 1   
     2     1    15 1   
     3     1    16 1   
     4     1    30 1   
     5     2     3 2   
     6     2     4 1   
     7     3    17 1   
     8     4     5 1   
     9     4    18 1   
    10     5     6 1   
    11     5    19 1   
    12     5    20 1   
    13     6     7 1   
    14     6    21 1   
    15     6    22 1   
    16     7     8 1   
    17     7    23 1   
    18     7    24 1   
    19     8     9 1   
    20     8    25 1   
    21     8    26 1   
    22     9    10 1   
    23     9    11 1   
    24     9    27 1   
    25    10    28 1   
    26    10    29 1   
    27    10    31 1   
    28    11    12 1   
    29    11    13 1   
    30    11    14 1   
@<TRIPOS>SUBSTRUCTURE
     1 19N         1 TEMP              0 ****  ****    0 ROOT
