@<TRIPOS>MOLECULE
molecule
   31    30     1     0     0
SMALL
bcc


@<TRIPOS>ATOM
      1 N1           0.0000     0.0000     0.0000 nz         1 19N      -0.742600
      2 C1           1.3740     0.0000     0.0000 c2         1 19N       0.658100
      3 N2           2.0260     0.0000     1.1290 n2         1 19N      -0.829100
      4 N3           2.0630     0.0000    -1.1900 nu         1 19N      -0.903200
      5 C2           3.5270     0.0000    -1.1890 c3         1 19N       0.222800
      6 C3           4.0380     0.0010    -2.6320 c3         1 19N      -0.090400
      7 C4           5.5690     0.0000    -2.6310 c3         1 19N      -0.096400
      8 C5           6.0780     0.0010    -4.0740 c3         1 19N      -0.063400
      9 C6           7.6090     0.0000    -4.0730 c3         1 19N      -0.014700
     10 N4           8.0990     0.0000    -5.4580 nz         1 19N      -0.765600
     11 P            8.2160    -1.4890    -3.2130 p5         1 19N       0.891700
     12 O1           7.7890    -1.4230    -1.6620 o          1 19N      -0.828167
     13 O3           9.8200    -1.5560    -3.3260 o          1 19N      -0.828167
     14 O2           7.6250    -2.6940    -3.8370 o          1 19N      -0.828167
     15 H1          -0.3340    -0.0010     0.9440 hn         1 19N       0.471800
     16 H2          -0.3340    -0.8170    -0.4720 hn         1 19N       0.471800
     17 H3           3.0260     0.0000     1.1310 hn         1 19N       0.491400
     18 H4           1.5630    -0.0000    -2.0570 hn         1 19N       0.436800
     19 H5           3.8890    -0.8840    -0.6780 h1         1 19N       0.074200
     20 H6           3.8880     0.8850    -0.6780 h1         1 19N       0.074200
     21 H7           3.6770    -0.8840    -3.1430 hc         1 19N       0.038200
     22 H8           3.6770     0.8850    -3.1430 hc         1 19N       0.038200
     23 H9           5.9290    -0.8840    -2.1200 hc         1 19N       0.108200
     24 H10          5.9300     0.8850    -2.1200 hc         1 19N       0.108200
     25 H11          5.7170    -0.8840    -4.5840 hc         1 19N       0.025700
     26 H12          5.7170     0.8850    -4.5840 hc         1 19N       0.025700
     27 H13          7.9700     0.8850    -3.5620 hx         1 19N       0.091700
     28 H14          7.7900    -0.8320    -5.9210 hn         1 19N       0.429467
     29 H15          7.7410     0.8020    -5.9390 hn         1 19N       0.429467
     30 H131        -0.3340     0.8230    -0.4610 hn         1 19N       0.471800
     31 H43          9.0990     0.0140    -5.4580 hn         1 19N       0.429467
@<TRIPOS>BOND
     1    13    11 1
     2    12    11 1
     3    11    14 1
     4    11     9 1
     5    10     9 1
     6     9     8 1
     7     8     7 1
     8     7     6 1
     9     6     5 1
    10     5     4 1
    11     4     2 1
    12     3     2 2
    13     2     1 1
    14     1    15 1
    15     1    16 1
    16     3    17 1
    17     4    18 1
    18     5    19 1
    19     5    20 1
    20     6    21 1
    21     6    22 1
    22     7    23 1
    23     7    24 1
    24     8    25 1
    25     8    26 1
    26     9    27 1
    27    10    28 1
    28    10    29 1
    29    30     1 1
    30    31    10 1
@<TRIPOS>SUBSTRUCTURE
     1 19N         1 TEMP              0 ****  ****    0 ROOT
