@<TRIPOS>MOLECULE
molecule
   59    63     1     0     0
SMALL
bcc


@<TRIPOS>ATOM
      1 C1           0.0000     0.0000     0.0000 cp         1 19P       0.503800
      2 C2           1.4030     0.0000     0.0000 ca         1 19P      -0.242300
      3 C3           2.0830     0.0000     1.1810 ca         1 19P      -0.115300
      4 C4           1.3440     0.0000     2.3810 ca         1 19P       0.299300
      5 C5          -0.0720     0.0010     2.3110 ca         1 19P       0.330300
      6 N6          -0.6850     0.0000     1.1290 nb         1 19P      -0.696000
      7 N7           1.9610     0.0000     3.5670 nb         1 19P      -0.673000
      8 C8           1.2940    -0.0010     4.6970 ca         1 19P       0.457200
      9 C9          -0.1010     0.0000     4.7170 ca         1 19P      -0.146700
     10 C10         -0.8040     0.0000     3.5180 ca         1 19P      -0.027700
     11 C11         -0.7270     0.0050    -1.2920 cp         1 19P      -0.286800
     12 C12         -0.0280    -0.0000    -2.4980 ca         1 19P       0.444200
     13 N13         -0.6730     0.0050    -3.6470 nb         1 19P      -0.693000
     14 C14         -1.9900     0.0160    -3.7050 ca         1 19P       0.441600
     15 C15         -2.7560     0.0240    -2.5530 ca         1 19P      -0.259300
     16 C16         -2.1240     0.0120    -1.3210 ca         1 19P      -0.053000
     17 C17         -2.6730     0.0220    -5.0480 c3         1 19P      -0.142400
     18 N18         -1.0490    -0.0000     5.7360 n          1 19P      -0.344000
     19 C19         -2.2730     0.0000     5.1740 c          1 19P       0.791500
     20 N20         -2.1500     0.0010     3.8320 n          1 19P      -0.323000
     21 C21         -3.2550     0.0020     2.8700 c3         1 19P       0.132700
     22 C22         -4.1130    -1.2490     3.0790 c3         1 19P      -0.119400
     23 C23         -5.2470    -1.2630     2.0480 c3         1 19P       0.109000
     24 N24         -5.9890     0.0010     2.1450 n          1 19P      -0.499800
     25 C25         -5.2470     1.2650     2.0490 c3         1 19P       0.109000
     26 C26         -4.1130     1.2510     3.0800 c3         1 19P      -0.119400
     27 O27         -3.3260    -0.0000     5.7830 o          1 19P      -0.657500
     28 C28         -0.7640    -0.0010     7.1730 c3         1 19P       0.114300
     29 C29         -7.3260     0.0010     2.3190 c          1 19P       0.662100
     30 O30         -7.9170     1.0480     2.4820 o          1 19P      -0.572100
     31 C31         -8.0860    -1.3000     2.3090 c3         1 19P       0.075100
     32 O32         -9.4440    -1.0590     2.6850 oh         1 19P      -0.570800
     33 C33         -8.0450    -1.9050     0.9050 c3         1 19P      -0.117100
     34 H1           1.9450    -0.0000    -0.9380 ha         1 19P       0.147000
     35 H2           3.1660     0.0000     1.1980 ha         1 19P       0.160000
     36 H3           1.8380    -0.0020     5.6340 h4         1 19P       0.030100
     37 H4           1.0550    -0.0100    -2.4900 h4         1 19P       0.026100
     38 H5          -3.8370     0.0310    -2.6140 ha         1 19P       0.143000
     39 H6          -2.6990     0.0170    -0.4030 ha         1 19P       0.152000
     40 H7          -2.6910    -0.9840    -5.4490 hc         1 19P       0.055033
     41 H8          -2.1310     0.6710    -5.7260 hc         1 19P       0.055033
     42 H9          -3.6880     0.3850    -4.9360 hc         1 19P       0.055033
     43 H10         -2.8600     0.0020     1.8610 h1         1 19P       0.096700
     44 H11         -4.5330    -1.2350     4.0770 hc         1 19P       0.071450
     45 H12         -3.4990    -2.1320     2.9510 hc         1 19P       0.071450
     46 H13         -5.9140    -2.0910     2.2550 h1         1 19P       0.057200
     47 H14         -4.8310    -1.3640     1.0530 h1         1 19P       0.057200
     48 H15         -4.8300     1.3650     1.0540 h1         1 19P       0.057200
     49 H16         -5.9140     2.0940     2.2550 h1         1 19P       0.057200
     50 H17         -4.5340     1.2370     4.0780 hc         1 19P       0.071450
     51 H18         -3.5000     2.1350     2.9520 hc         1 19P       0.071450
     52 H19         -0.2100    -0.8960     7.4310 h1         1 19P       0.056700
     53 H20         -0.1760     0.8730     7.4260 h1         1 19P       0.056700
     54 H21         -1.6960     0.0190     7.7260 h1         1 19P       0.056700
     55 H22         -7.6340    -1.9880     3.0130 h1         1 19P       0.042700
     56 H23         -9.7630    -1.7870     3.1930 ho         1 19P       0.403000
     57 H24         -7.7400    -1.1470     0.1940 hc         1 19P       0.048367
     58 H25         -7.3350    -2.7240     0.8860 hc         1 19P       0.048367
     59 H26         -9.0280    -2.2740     0.6410 hc         1 19P       0.048367
@<TRIPOS>BOND
     1     3     4 ar
     2     3     2 ar
     3     7     8 ar
     4     7     4 ar
     5     8     9 ar
     6     4     5 ar
     7     2     1 ar
     8    12    13 ar
     9    12    11 ar
    10     9    10 ar
    11     9    18 1
    12     1     6 ar
    13     1    11 1
    14     5     6 ar
    15     5    10 ar
    16    13    14 ar
    17    28    18 1
    18    10    20 1
    19    11    16 ar
    20    18    19 1
    21    22    21 1
    22    22    23 1
    23    14    17 1
    24    14    15 ar
    25    20    19 1
    26    20    21 1
    27    19    27 2
    28    16    15 ar
    29    21    26 1
    30    23    24 1
    31    31    32 1
    32    31    33 1
    33    31    29 1
    34    26    25 1
    35    24    29 1
    36    24    25 1
    37    29    30 2
    38     2    34 1
    39     3    35 1
    40     8    36 1
    41    12    37 1
    42    15    38 1
    43    16    39 1
    44    17    40 1
    45    17    41 1
    46    17    42 1
    47    21    43 1
    48    22    44 1
    49    22    45 1
    50    23    46 1
    51    23    47 1
    52    25    48 1
    53    25    49 1
    54    26    50 1
    55    26    51 1
    56    28    52 1
    57    28    53 1
    58    28    54 1
    59    31    55 1
    60    32    56 1
    61    33    57 1
    62    33    58 1
    63    33    59 1
@<TRIPOS>SUBSTRUCTURE
     1 19P         1 TEMP              0 ****  ****    0 ROOT
