@<TRIPOS>MOLECULE
19P
   59    63     1     0     0
SMALL
bcc


@<TRIPOS>ATOM
      1 C1          -0.0750     0.0240    -0.0640 cp         1 19P       0.496800
      2 C2           1.3010    -0.3910    -0.0910 ca         1 19P      -0.237300
      3 C3           1.9630    -0.6130     1.0850 ca         1 19P      -0.125300
      4 C4           1.2790    -0.4290     2.3350 ca         1 19P       0.287300
      5 C5          -0.1140    -0.0460     2.2630 ca         1 19P       0.319300
      6 N6          -0.7570     0.1770     1.0720 nb         1 19P      -0.667000
      7 N7           1.9710    -0.6150     3.5090 nb         1 19P      -0.651000
      8 C8           1.3470    -0.4220     4.6570 ca         1 19P       0.438200
      9 C9          -0.0210    -0.0480     4.7180 ca         1 19P      -0.156700
     10 C10         -0.7860     0.1180     3.5180 ca         1 19P      -0.010700
     11 C11         -0.7410     0.2920    -1.3460 cp         1 19P      -0.286800
     12 C12         -0.0270     0.8920    -2.4090 ca         1 19P       0.417200
     13 N13         -0.5610     1.1720    -3.6060 nb         1 19P      -0.672000
     14 C14         -1.8710     0.8670    -3.8050 ca         1 19P       0.424600
     15 C15         -2.6640     0.2750    -2.7970 ca         1 19P      -0.254300
     16 C16         -2.0900    -0.0160    -1.5610 ca         1 19P      -0.058000
     17 C17         -2.4900     1.1590    -5.1330 c3         1 19P      -0.153400
     18 N18         -0.8270     0.2720     5.8290 n          1 19P      -0.317000
     19 C19         -2.1440     0.5160     5.3200 c          1 19P       0.762500
     20 N20         -2.0920     0.5040     3.8740 n          1 19P      -0.318000
     21 C21         -3.3440     0.3760     3.1540 c3         1 19P       0.119700
     22 C22         -3.5910     1.4840     2.1200 c3         1 19P      -0.116400
     23 C23         -5.0310     1.3700     1.6060 c3         1 19P       0.085500
     24 N24         -5.3720     0.0620     1.0960 n          1 19P      -0.456800
     25 C25         -5.0270    -1.0420     1.9700 c3         1 19P       0.085500
     26 C26         -3.5900    -0.9890     2.4970 c3         1 19P      -0.116400
     27 O27         -3.1420     0.7940     6.0060 o          1 19P      -0.618500
     28 C28         -0.5950    -0.2080     7.1540 c3         1 19P       0.081300
     29 C29         -5.7150    -0.1840    -0.2200 c          1 19P       0.622100
     30 O30         -5.8570    -1.3540    -0.6390 o          1 19P      -0.620100
     31 C31         -6.0150     0.9650    -1.1940 c3         1 19P       0.084100
     32 O32         -5.9590     0.4700    -2.5180 oh         1 19P      -0.595800
     33 C33         -7.3760     1.5630    -0.8920 c3         1 19P      -0.127100
     34 H1           1.7990    -0.5340    -1.0610 ha         1 19P       0.154000
     35 H2           3.0190    -0.9290     1.0950 ha         1 19P       0.160000
     36 H3           1.9360    -0.5630     5.5820 h4         1 19P       0.034100
     37 H4           1.0350     1.1750    -2.2880 h4         1 19P       0.023100
     38 H5          -3.7290     0.0580    -2.9830 ha         1 19P       0.170000
     39 H6          -2.6940    -0.4820    -0.7650 ha         1 19P       0.152000
     40 H7          -2.1180     0.4270    -5.8930 hc         1 19P       0.057033
     41 H8          -3.6020     1.0740    -5.0660 hc         1 19P       0.057033
     42 H9          -2.2280     2.1890    -5.4820 hc         1 19P       0.057033
     43 H10         -4.1500     0.5040     3.9530 h1         1 19P       0.085700
     44 H11         -2.8730     1.4110     1.2660 hc         1 19P       0.071200
     45 H12         -3.4660     2.4910     2.5930 hc         1 19P       0.071200
     46 H13         -5.7380     1.5930     2.4590 h1         1 19P       0.061950
     47 H14         -5.1900     2.1580     0.8200 h1         1 19P       0.061950
     48 H15         -5.7380    -1.0140     2.8460 h1         1 19P       0.061950
     49 H16         -5.1780    -2.0160     1.4240 h1         1 19P       0.061950
     50 H17         -2.8690    -1.1670     1.6600 hc         1 19P       0.071200
     51 H18         -3.4640    -1.8140     3.2450 hc         1 19P       0.071200
     52 H19          0.4140     0.1520     7.4930 h1         1 19P       0.057700
     53 H20         -0.6180    -1.3300     7.2050 h1         1 19P       0.057700
     54 H21         -1.3910     0.2090     7.8290 h1         1 19P       0.057700
     55 H22         -5.2050     1.7480    -1.1670 h1         1 19P       0.090700
     56 H23         -6.4630    -0.3570    -2.5510 ho         1 19P       0.428000
     57 H24         -7.3820     2.0220     0.1240 hc         1 19P       0.053367
     58 H25         -7.6130     2.3480    -1.6510 hc         1 19P       0.053367
     59 H26         -8.1670     0.7760    -0.9400 hc         1 19P       0.053367
@<TRIPOS>BOND
     1     1     2 ar  
     2     1     6 ar  
     3     1    11 1   
     4     2     3 ar  
     5     2    34 1   
     6     3     4 ar  
     7     3    35 1   
     8     4     5 ar  
     9     4     7 ar  
    10     5     6 ar  
    11     5    10 ar  
    12     7     8 ar  
    13     8     9 ar  
    14     8    36 1   
    15     9    10 ar  
    16     9    18 1   
    17    10    20 1   
    18    11    12 ar  
    19    11    16 ar  
    20    12    13 ar  
    21    12    37 1   
    22    13    14 ar  
    23    14    15 ar  
    24    14    17 1   
    25    15    16 ar  
    26    15    38 1   
    27    16    39 1   
    28    17    40 1   
    29    17    41 1   
    30    17    42 1   
    31    18    19 1   
    32    18    28 1   
    33    19    20 1   
    34    19    27 2   
    35    20    21 1   
    36    21    22 1   
    37    21    26 1   
    38    21    43 1   
    39    22    23 1   
    40    22    44 1   
    41    22    45 1   
    42    23    24 1   
    43    23    46 1   
    44    23    47 1   
    45    24    25 1   
    46    24    29 1   
    47    25    26 1   
    48    25    48 1   
    49    25    49 1   
    50    26    50 1   
    51    26    51 1   
    52    28    52 1   
    53    28    53 1   
    54    28    54 1   
    55    29    30 2   
    56    29    31 1   
    57    31    32 1   
    58    31    33 1   
    59    31    55 1   
    60    32    56 1   
    61    33    57 1   
    62    33    58 1   
    63    33    59 1   
@<TRIPOS>SUBSTRUCTURE
     1 19P         1 TEMP              0 ****  ****    0 ROOT
