@<TRIPOS>MOLECULE
19P
   59    63     1     0     0
SMALL
bcc


@<TRIPOS>ATOM
      1 C1           0.0000     0.0000     0.0000 cp         1 19P       0.461800
      2 C2           1.4030     0.0000     0.0000 ca         1 19P      -0.217300
      3 C3           2.0830     0.0000     1.1810 ca         1 19P      -0.091300
      4 C4           1.3440     0.0000     2.3810 ca         1 19P       0.259300
      5 C5          -0.0720     0.0010     2.3110 ca         1 19P       0.303300
      6 N6          -0.6850     0.0000     1.1290 nb         1 19P      -0.579000
      7 N7           1.9610     0.0000     3.5670 nb         1 19P      -0.564000
      8 C8           1.2940    -0.0010     4.6970 ca         1 19P       0.452200
      9 C9          -0.1010     0.0000     4.7170 ca         1 19P      -0.292700
     10 C10         -0.8040     0.0000     3.5180 ca         1 19P      -0.190700
     11 C11         -0.7270     0.0050    -1.2920 cp         1 19P      -0.289800
     12 C12         -0.0280    -0.0000    -2.4980 ca         1 19P       0.420200
     13 N13         -0.6730     0.0050    -3.6470 nb         1 19P      -0.579000
     14 C14         -1.9900     0.0160    -3.7050 ca         1 19P       0.388600
     15 C15         -2.7560     0.0240    -2.5530 ca         1 19P      -0.226300
     16 C16         -2.1240     0.0120    -1.3210 ca         1 19P      -0.035000
     17 C17         -2.6730     0.0220    -5.0480 c3         1 19P      -0.041400
     18 N18         -1.0490    -0.0000     5.7360 n          1 19P       0.077000
     19 C19         -2.2730     0.0000     5.1740 c          1 19P       0.564500
     20 N20         -2.1500     0.0010     3.8320 n          1 19P       0.107000
     21 C21         -3.2550     0.0020     2.8700 c3         1 19P       0.008700
     22 C22         -4.1130    -1.2490     3.0790 c3         1 19P      -0.069900
     23 C23         -5.2470    -1.2630     2.0480 c3         1 19P       0.054500
     24 N24         -5.9890     0.0010     2.1450 n          1 19P      -0.165800
     25 C25         -5.2470     1.2650     2.0490 c3         1 19P       0.054500
     26 C26         -4.1130     1.2510     3.0800 c3         1 19P      -0.069900
     27 O27         -3.3260    -0.0000     5.7830 o          1 19P      -0.715500
     28 C28         -0.7640    -0.0010     7.1730 c3         1 19P       0.079300
     29 C29         -7.3260     0.0010     2.3190 c          1 19P       0.580100
     30 O30         -7.9170     1.0480     2.4820 o          1 19P      -0.610100
     31 C31         -8.0860    -1.3000     2.3090 c3         1 19P       0.118100
     32 O32         -9.4440    -1.0590     2.6850 oh         1 19P      -0.547800
     33 C33         -8.0450    -1.9050     0.9050 c3         1 19P      -0.030100
     34 H1           1.9450    -0.0000    -0.9380 ha         1 19P       0.126000
     35 H2           3.1660     0.0000     1.1980 ha         1 19P       0.124000
     36 H3           1.8380    -0.0020     5.6340 h4         1 19P      -0.017900
     37 H4           1.0550    -0.0100    -2.4900 h4         1 19P      -0.013900
     38 H5          -3.8370     0.0310    -2.6140 ha         1 19P       0.118000
     39 H6          -2.6990     0.0170    -0.4030 ha         1 19P       0.122000
     40 H7          -2.6910    -0.9840    -5.4490 hc         1 19P       0.015700
     41 H8          -2.1310     0.6710    -5.7260 hc         1 19P       0.015700
     42 H9          -3.6880     0.3850    -4.9360 hc         1 19P       0.015700
     43 H10         -2.8600     0.0020     1.8610 h1         1 19P       0.074700
     44 H11         -4.5330    -1.2350     4.0770 hc         1 19P       0.043950
     45 H12         -3.4990    -2.1320     2.9510 hc         1 19P       0.043950
     46 H13         -5.9140    -2.0910     2.2550 h1         1 19P       0.030700
     47 H14         -4.8310    -1.3640     1.0530 h1         1 19P       0.030700
     48 H15         -4.8300     1.3650     1.0540 h1         1 19P       0.030700
     49 H16         -5.9140     2.0940     2.2550 h1         1 19P       0.030700
     50 H17         -4.5340     1.2370     4.0780 hc         1 19P       0.043950
     51 H18         -3.5000     2.1350     2.9520 hc         1 19P       0.043950
     52 H19         -0.2100    -0.8960     7.4310 h1         1 19P       0.023367
     53 H20         -0.1760     0.8730     7.4260 h1         1 19P       0.023367
     54 H21         -1.6960     0.0190     7.7260 h1         1 19P       0.023367
     55 H22         -7.6340    -1.9880     3.0130 h1         1 19P       0.008700
     56 H23         -9.7630    -1.7870     3.1930 ho         1 19P       0.384000
     57 H24         -7.7400    -1.1470     0.1940 hc         1 19P       0.015367
     58 H25         -7.3350    -2.7240     0.8860 hc         1 19P       0.015367
     59 H26         -9.0280    -2.2740     0.6410 hc         1 19P       0.015367
@<TRIPOS>BOND
     1     1     2 ar  
     2     1     6 ar  
     3     1    11 1   
     4     2     3 ar  
     5     2    34 1   
     6     3     4 ar  
     7     3    35 1   
     8     4     5 ar  
     9     4     7 ar  
    10     5     6 ar  
    11     5    10 ar  
    12     7     8 ar  
    13     8     9 ar  
    14     8    36 1   
    15     9    10 ar  
    16     9    18 1   
    17    10    20 1   
    18    11    12 ar  
    19    11    16 ar  
    20    12    13 ar  
    21    12    37 1   
    22    13    14 ar  
    23    14    15 ar  
    24    14    17 1   
    25    15    16 ar  
    26    15    38 1   
    27    16    39 1   
    28    17    40 1   
    29    17    41 1   
    30    17    42 1   
    31    18    19 1   
    32    18    28 1   
    33    19    20 1   
    34    19    27 2   
    35    20    21 1   
    36    21    22 1   
    37    21    26 1   
    38    21    43 1   
    39    22    23 1   
    40    22    44 1   
    41    22    45 1   
    42    23    24 1   
    43    23    46 1   
    44    23    47 1   
    45    24    25 1   
    46    24    29 1   
    47    25    26 1   
    48    25    48 1   
    49    25    49 1   
    50    26    50 1   
    51    26    51 1   
    52    28    52 1   
    53    28    53 1   
    54    28    54 1   
    55    29    30 2   
    56    29    31 1   
    57    31    32 1   
    58    31    33 1   
    59    31    55 1   
    60    32    56 1   
    61    33    57 1   
    62    33    58 1   
    63    33    59 1   
@<TRIPOS>SUBSTRUCTURE
     1 19P         1 TEMP              0 ****  ****    0 ROOT
