@<TRIPOS>MOLECULE
19Q
   42    44     1     0     0
SMALL
bcc


@<TRIPOS>ATOM
      1 C1          -0.0620     0.0150     0.1120 cc         1 19Q      -0.425000
      2 C2           1.3490    -0.1240     0.0290 cd         1 19Q       0.067900
      3 N3           1.8960    -0.2490     1.2790 na         1 19Q      -0.224100
      4 C4          -0.4040    -0.0280     1.5210 ca         1 19Q       0.333800
      5 C5           0.8570    -0.1940     2.2340 ca         1 19Q       0.299500
      6 N6           0.9260    -0.2710     3.5970 nb         1 19Q      -0.578000
      7 C7          -0.2570    -0.1800     4.2060 ca         1 19Q       0.317900
      8 C8          -1.5220    -0.0140     3.5150 ca         1 19Q       0.386300
      9 N9          -1.5890     0.0600     2.1710 nb         1 19Q      -0.686000
     10 C10         -0.9200     0.1710    -1.0200 c          1 19Q       0.605300
     11 N11         -2.3960     0.2600    -0.6770 ny         1 19Q      -0.660800
     12 O12         -0.6060     0.2420    -2.2050 o          1 19Q      -0.461100
     13 C13         -3.3300     0.3720    -1.8500 c3         1 19Q       0.122500
     14 C14         -4.4540    -0.6500    -1.7590 c3         1 19Q      -0.127100
     15 C15         -3.8990     1.8190    -2.0000 c3         1 19Q       0.146800
     16 C16         -4.8700     2.1860    -0.8870 c3         1 19Q      -0.146600
     17 C17         -2.7700     2.8400    -2.0860 c3         1 19Q      -0.146600
     18 O18         -4.5880     1.7440    -3.2460 oh         1 19Q      -0.585800
     19 C19         -2.7360     0.0680     4.3480 cx         1 19Q      -0.214000
     20 C20         -3.9450     0.8570     3.9000 cx         1 19Q      -0.099900
     21 C21         -4.0090    -0.6350     3.9320 cx         1 19Q      -0.099900
     22 H1           1.9650    -0.1380    -0.8820 h4         1 19Q       0.216000
     23 H2           2.8590    -0.3610     1.4990 hn         1 19Q       0.347700
     24 H3          -0.2360    -0.2390     5.3110 h4         1 19Q       0.064100
     25 H4          -2.5220     1.0730    -0.0600 hn         1 19Q       0.466800
     26 H5          -2.7340     0.1630    -2.7950 hx         1 19Q       0.142700
     27 H6          -5.1470    -0.4660    -2.6220 hc         1 19Q       0.078033
     28 H7          -5.0370    -0.5530    -0.8120 hc         1 19Q       0.078033
     29 H8          -4.0570    -1.6910    -1.8420 hc         1 19Q       0.078033
     30 H9          -5.1860     3.2520    -1.0050 hc         1 19Q       0.060700
     31 H10         -4.4040     2.0730     0.1200 hc         1 19Q       0.060700
     32 H11         -5.7830     1.5450    -0.9430 hc         1 19Q       0.060700
     33 H12         -2.3750     3.0890    -1.0730 hc         1 19Q       0.060700
     34 H13         -3.1520     3.7850    -2.5450 hc         1 19Q       0.060700
     35 H14         -1.9400     2.4550    -2.7270 hc         1 19Q       0.060700
     36 H15         -4.9500     2.6220    -3.4260 ho         1 19Q       0.432000
     37 H16         -2.4920     0.0830     5.4320 hc         1 19Q       0.108700
     38 H17         -3.9210     1.3790     2.9280 hc         1 19Q       0.082450
     39 H18         -4.4930     1.4400     4.6650 hc         1 19Q       0.082450
     40 H19         -4.6030    -1.1370     4.7180 hc         1 19Q       0.082450
     41 H20         -4.0260    -1.1980     2.9820 hc         1 19Q       0.082450
     42 H112        -2.6390    -0.5820    -0.1380 hn         1 19Q       0.466800
@<TRIPOS>BOND
     1     1     2 2   
     2     1     4 1   
     3     1    10 1   
     4     2     3 1   
     5     2    22 1   
     6     3     5 1   
     7     3    23 1   
     8     4     5 ar  
     9     4     9 ar  
    10     5     6 ar  
    11     6     7 ar  
    12     7     8 ar  
    13     7    24 1   
    14     8     9 ar  
    15     8    19 1   
    16    10    11 1   
    17    10    12 2   
    18    11    13 1   
    19    11    25 1   
    20    11    42 1   
    21    13    14 1   
    22    13    15 1   
    23    13    26 1   
    24    14    27 1   
    25    14    28 1   
    26    14    29 1   
    27    15    16 1   
    28    15    17 1   
    29    15    18 1   
    30    16    30 1   
    31    16    31 1   
    32    16    32 1   
    33    17    33 1   
    34    17    34 1   
    35    17    35 1   
    36    18    36 1   
    37    19    20 1   
    38    19    21 1   
    39    19    37 1   
    40    20    21 1   
    41    20    38 1   
    42    20    39 1   
    43    21    40 1   
    44    21    41 1   
@<TRIPOS>SUBSTRUCTURE
     1 19Q         1 TEMP              0 ****  ****    0 ROOT
