@<TRIPOS>MOLECULE
19Q
   41    43     1     0     0
SMALL
bcc


@<TRIPOS>ATOM
      1 C1           0.0000     0.0000     0.0000 cc         1 19Q      -0.318000
      2 C2           1.3640     0.0000     0.0000 cd         1 19Q      -0.240100
      3 N3           1.8230     0.0000     1.2750 na         1 19Q       0.292900
      4 C4          -0.4180    -0.0000     1.4120 ca         1 19Q       0.312800
      5 C5           0.7730     0.0000     2.1650 ca         1 19Q       0.092500
      6 N6           0.7050     0.0010     3.4890 nb         1 19Q      -0.543000
      7 C7          -0.4710     0.0000     4.0880 ca         1 19Q       0.290900
      8 C8          -1.6420    -0.0000     3.3460 ca         1 19Q       0.270300
      9 N9          -1.5930     0.0010     2.0260 nb         1 19Q      -0.447000
     10 C10         -0.8800     0.0050    -1.1770 c          1 19Q       0.624300
     11 N11         -0.3470     0.0100    -2.4160 ns         1 19Q      -0.198900
     12 O12         -2.0870     0.0050    -1.0340 o          1 19Q      -0.632100
     13 C13         -1.2240     0.0150    -3.5890 c3         1 19Q       0.029700
     14 C14         -1.6290     1.4530    -3.9180 c3         1 19Q      -0.026100
     15 C15         -0.4830    -0.5910    -4.7830 c3         1 19Q       0.150800
     16 C16         -0.0770    -2.0290    -4.4560 c3         1 19Q      -0.033100
     17 C17         -1.3980    -0.5850    -6.0090 c3         1 19Q      -0.033100
     18 O18          0.6880     0.1840    -5.0590 oh         1 19Q      -0.595800
     19 C19         -2.9750    -0.0010     4.0480 cx         1 19Q      -0.143000
     20 C20         -3.0740    -0.7520     5.3770 cx         1 19Q      -0.081400
     21 C21         -3.0840     0.7770     5.3610 cx         1 19Q      -0.081400
     22 H1           1.9880     0.0020    -0.8860 h4         1 19Q       0.146000
     23 H2           2.7900    -0.0000     1.5330 hn         1 19Q       0.118700
     24 H3          -0.5220    -0.0010     5.1700 h4         1 19Q      -0.003900
     25 H4           0.6450     0.0600    -2.5340 hn         1 19Q       0.180500
     26 H5          -2.1100    -0.5710    -3.3800 h1         1 19Q       0.062700
     27 H6          -0.7830     1.9780    -4.3450 hc         1 19Q       0.017033
     28 H7          -1.9450     1.9550    -3.0110 hc         1 19Q       0.017033
     29 H8          -2.4460     1.4450    -4.6290 hc         1 19Q       0.017033
     30 H9          -0.9030    -2.5360    -3.9720 hc         1 19Q       0.015033
     31 H10          0.1800    -2.5490    -5.3710 hc         1 19Q       0.015033
     32 H11          0.7800    -2.0200    -3.7920 hc         1 19Q       0.015033
     33 H12         -2.3500    -1.0320    -5.7510 hc         1 19Q       0.015033
     34 H13         -1.5550     0.4350    -6.3370 hc         1 19Q       0.015033
     35 H14         -0.9360    -1.1540    -6.8070 hc         1 19Q       0.015033
     36 H15          1.0690    -0.1030    -5.8720 ho         1 19Q       0.398000
     37 H16         -3.8800    -0.0140     3.4520 hc         1 19Q       0.075700
     38 H17         -4.0290    -1.2240     5.5770 hc         1 19Q       0.047700
     39 H18         -2.1560    -1.2100     5.7240 hc         1 19Q       0.047700
     40 H19         -4.0440     1.2400     5.5520 hc         1 19Q       0.047700
     41 H20         -2.1710     1.2540     5.6990 hc         1 19Q       0.047700
@<TRIPOS>BOND
     1     1     2 2   
     2     1     4 1   
     3     1    10 1   
     4     2     3 1   
     5     2    22 1   
     6     3     5 1   
     7     3    23 1   
     8     4     5 ar  
     9     4     9 ar  
    10     5     6 ar  
    11     6     7 ar  
    12     7     8 ar  
    13     7    24 1   
    14     8     9 ar  
    15     8    19 1   
    16    10    11 1   
    17    10    12 2   
    18    11    13 1   
    19    11    25 1   
    20    13    14 1   
    21    13    15 1   
    22    13    26 1   
    23    14    27 1   
    24    14    28 1   
    25    14    29 1   
    26    15    16 1   
    27    15    17 1   
    28    15    18 1   
    29    16    30 1   
    30    16    31 1   
    31    16    32 1   
    32    17    33 1   
    33    17    34 1   
    34    17    35 1   
    35    18    36 1   
    36    19    20 1   
    37    19    21 1   
    38    19    37 1   
    39    20    21 1   
    40    20    38 1   
    41    20    39 1   
    42    21    40 1   
    43    21    41 1   
@<TRIPOS>SUBSTRUCTURE
     1 19Q         1 TEMP              0 ****  ****    0 ROOT
