@<TRIPOS>MOLECULE
molecule
   41    43     1     0     0
SMALL
bcc


@<TRIPOS>ATOM
      1 C1           0.0000     0.0000     0.0000 cc         1 19Q      -0.317000
      2 C2           1.3640     0.0000     0.0000 cd         1 19Q      -0.052100
      3 N3           1.8230     0.0000     1.2750 na         1 19Q      -0.264100
      4 C4          -0.4180    -0.0000     1.4120 ca         1 19Q       0.360800
      5 C5           0.7730     0.0000     2.1650 ca         1 19Q       0.328500
      6 N6           0.7050     0.0010     3.4890 nb         1 19Q      -0.670000
      7 C7          -0.4710     0.0000     4.0880 ca         1 19Q       0.318900
      8 C8          -1.6420    -0.0000     3.3460 ca         1 19Q       0.327300
      9 N9          -1.5930     0.0010     2.0260 nb         1 19Q      -0.589000
     10 C10         -0.8800     0.0050    -1.1770 c          1 19Q       0.696300
     11 N11         -0.3470     0.0100    -2.4160 ns         1 19Q      -0.583900
     12 O12         -2.0870     0.0050    -1.0340 o          1 19Q      -0.586100
     13 C13         -1.2240     0.0150    -3.5890 c3         1 19Q       0.139700
     14 C14         -1.6290     1.4530    -3.9180 c3         1 19Q      -0.111100
     15 C15         -0.4830    -0.5910    -4.7830 c3         1 19Q       0.131800
     16 C16         -0.0770    -2.0290    -4.4560 c3         1 19Q      -0.118600
     17 C17         -1.3980    -0.5850    -6.0090 c3         1 19Q      -0.118600
     18 O18          0.6880     0.1840    -5.0590 oh         1 19Q      -0.611800
     19 C19         -2.9750    -0.0010     4.0480 cx         1 19Q      -0.171000
     20 C20         -3.0740    -0.7520     5.3770 cx         1 19Q      -0.133900
     21 C21         -3.0840     0.7770     5.3610 cx         1 19Q      -0.133900
     22 H1           1.9880     0.0020    -0.8860 h4         1 19Q       0.176000
     23 H2           2.7900    -0.0000     1.5330 hn         1 19Q       0.308700
     24 H3          -0.5220    -0.0010     5.1700 h4         1 19Q       0.034100
     25 H4           0.6450     0.0600    -2.5340 hn         1 19Q       0.315500
     26 H5          -2.1100    -0.5710    -3.3800 h1         1 19Q       0.085700
     27 H6          -0.7830     1.9780    -4.3450 hc         1 19Q       0.047033
     28 H7          -1.9450     1.9550    -3.0110 hc         1 19Q       0.047033
     29 H8          -2.4460     1.4450    -4.6290 hc         1 19Q       0.047033
     30 H9          -0.9030    -2.5360    -3.9720 hc         1 19Q       0.045200
     31 H10          0.1800    -2.5490    -5.3710 hc         1 19Q       0.045200
     32 H11          0.7800    -2.0200    -3.7920 hc         1 19Q       0.045200
     33 H12         -2.3500    -1.0320    -5.7510 hc         1 19Q       0.045200
     34 H13         -1.5550     0.4350    -6.3370 hc         1 19Q       0.045200
     35 H14         -0.9360    -1.1540    -6.8070 hc         1 19Q       0.045200
     36 H15          1.0690    -0.1030    -5.8720 ho         1 19Q       0.406000
     37 H16         -3.8800    -0.0140     3.4520 hc         1 19Q       0.108700
     38 H17         -4.0290    -1.2240     5.5770 hc         1 19Q       0.077700
     39 H18         -2.1560    -1.2100     5.7240 hc         1 19Q       0.077700
     40 H19         -4.0440     1.2400     5.5520 hc         1 19Q       0.077700
     41 H20         -2.1710     1.2540     5.6990 hc         1 19Q       0.077700
@<TRIPOS>BOND
     1    17    15 1
     2    18    15 1
     3    16    15 1
     4    15    13 1
     5    13    11 1
     6    13    14 1
     7    11    10 1
     8    20    19 1
     9    20    21 1
    10    12    10 2
    11    10     1 1
    12     1     2 2
    13     1     4 1
    14     2     3 1
    15     9     4 ar
    16     9     8 ar
    17     4     5 ar
    18    19    21 1
    19    19     8 1
    20     8     7 ar
    21     3     5 1
    22     5     6 ar
    23     7     6 ar
    24     2    22 1
    25     3    23 1
    26     7    24 1
    27    11    25 1
    28    13    26 1
    29    14    27 1
    30    14    28 1
    31    14    29 1
    32    16    30 1
    33    16    31 1
    34    16    32 1
    35    17    33 1
    36    17    34 1
    37    17    35 1
    38    18    36 1
    39    19    37 1
    40    20    38 1
    41    20    39 1
    42    21    40 1
    43    21    41 1
@<TRIPOS>SUBSTRUCTURE
     1 19Q         1 TEMP              0 ****  ****    0 ROOT
