@<TRIPOS>MOLECULE
molecule
   41    43     1     0     0
SMALL
bcc


@<TRIPOS>ATOM
      1 C1           0.0000     0.0000     0.0000 ca         1 19R       0.318900
      2 C2           1.3860     0.0000     0.0000 ca         1 19R       0.327300
      3 N3           2.0530     0.0000     1.1400 nb         1 19R      -0.588000
      4 N4          -0.6720     0.0010     1.1360 nb         1 19R      -0.670000
      5 C5          -0.0200    -0.0040     2.2910 ca         1 19R       0.327500
      6 C6           1.3890     0.0000     2.2890 ca         1 19R       0.359800
      7 C7           1.7930     0.0010     3.7050 cc         1 19R      -0.316000
      8 C8           0.6400     0.0020     4.4360 cd         1 19R      -0.053100
      9 N9          -0.4290    -0.0050     3.6050 na         1 19R      -0.262100
     10 C10          3.1660     0.0070     4.2280 c          1 19R       0.695300
     11 O11          4.1100     0.0050     3.4600 o          1 19R      -0.585100
     12 C12          2.1360    -0.0010    -1.3070 cx         1 19R      -0.171000
     13 N13          3.3800     0.0150     5.5590 ns         1 19R      -0.584900
     14 C14          1.5080    -0.7530    -2.4820 cx         1 19R      -0.133400
     15 C15          1.5230     0.7770    -2.4740 cx         1 19R      -0.133400
     16 C16          4.7500     0.0210     6.0800 c3         1 19R       0.139700
     17 C17          4.7590     0.6390     7.4800 c3         1 19R       0.131800
     18 C18          6.2020     0.7590     7.9740 c3         1 19R      -0.120100
     19 C19          4.1200     2.0280     7.4290 c3         1 19R      -0.120100
     20 O20          4.0180    -0.1950     8.3730 oh         1 19R      -0.609800
     21 C21          5.2740    -1.4140     6.1520 c3         1 19R      -0.109100
     22 H1          -0.5370    -0.0000    -0.9410 h4         1 19R       0.034100
     23 H2           0.5880     0.0070     5.5180 h4         1 19R       0.175000
     24 H3          -1.3840    -0.0060     3.9050 hn         1 19R       0.308700
     25 H4           3.2190    -0.0120    -1.2890 hc         1 19R       0.108700
     26 H5           2.6050    -0.0160     6.1910 hn         1 19R       0.313500
     27 H6           2.2070    -1.2240    -3.1630 hc         1 19R       0.077700
     28 H7           0.5470    -1.2120    -2.2830 hc         1 19R       0.077700
     29 H8           2.2310     1.2410    -3.1500 hc         1 19R       0.077700
     30 H9           0.5720     1.2530    -2.2700 hc         1 19R       0.077700
     31 H10          5.3840     0.6040     5.4240 h1         1 19R       0.085700
     32 H11          6.5650    -0.2180     8.2700 hc         1 19R       0.045033
     33 H12          6.2380     1.4310     8.8230 hc         1 19R       0.045033
     34 H13          6.8250     1.1500     7.1780 hc         1 19R       0.045033
     35 H14          3.0410     1.9290     7.4250 hc         1 19R       0.045033
     36 H15          4.4270     2.5980     8.2980 hc         1 19R       0.045033
     37 H16          4.4400     2.5400     6.5300 hc         1 19R       0.045033
     38 H17          4.0140     0.1920     9.2330 ho         1 19R       0.405000
     39 H18          6.3460    -1.4150     5.9960 hc         1 19R       0.047700
     40 H19          5.0510    -1.8320     7.1270 hc         1 19R       0.047700
     41 H20          4.7970    -2.0120     5.3860 hc         1 19R       0.047700
@<TRIPOS>BOND
     1    21    16 1   
     2    18    17 1   
     3    16    17 1   
     4    16    13 1   
     5    20    17 1   
     6    17    19 1   
     7    13    10 1   
     8    11    10 2   
     9    10     7 1   
    10    14    12 1   
    11    14    15 1   
    12     7     8 2   
    13     7     6 1   
    14     3     6 ar  
    15     3     2 ar  
    16     8     9 1   
    17     6     5 ar  
    18    12     2 1   
    19    12    15 1   
    20     2     1 ar  
    21     9     5 1   
    22     5     4 ar  
    23     1     4 ar  
    24     1    22 1   
    25     8    23 1   
    26     9    24 1   
    27    12    25 1   
    28    13    26 1   
    29    14    27 1   
    30    14    28 1   
    31    15    29 1   
    32    15    30 1   
    33    16    31 1   
    34    18    32 1   
    35    18    33 1   
    36    18    34 1   
    37    19    35 1   
    38    19    36 1   
    39    19    37 1   
    40    20    38 1   
    41    21    39 1   
    42    21    40 1   
    43    21    41 1   
@<TRIPOS>SUBSTRUCTURE
     1 19R         1 TEMP              0 ****  ****    0 ROOT
