@<TRIPOS>MOLECULE
19R
   42    44     1     0     0
SMALL
bcc


@<TRIPOS>ATOM
      1 C1          -0.1440    -0.0280     0.0330 ca         1 19R       0.316900
      2 C2           1.3060    -0.0590     0.0000 ca         1 19R       0.386300
      3 N3           2.0400    -0.0080     1.1300 nb         1 19R      -0.677000
      4 N4          -0.8710     0.0490     1.1480 nb         1 19R      -0.580000
      5 C5          -0.1260     0.1010     2.2930 ca         1 19R       0.297500
      6 C6           1.3320     0.0750     2.2820 ca         1 19R       0.335800
      7 C7           1.7420     0.1450     3.6710 cc         1 19R      -0.422000
      8 C8           0.5530     0.2050     4.4460 cd         1 19R       0.065900
      9 N9          -0.5520     0.1810     3.6380 na         1 19R      -0.225100
     10 C10          3.0610     0.1470     4.2220 c          1 19R       0.607300
     11 O11          3.3860     0.1390     5.4070 o          1 19R      -0.472100
     12 C12          1.9460    -0.1510    -1.3250 cx         1 19R      -0.215000
     13 N13          4.1750     0.1510     3.2000 ny         1 19R      -0.656800
     14 C14          3.2690     0.5260    -1.6020 cx         1 19R      -0.099900
     15 C15          3.2060    -0.9650    -1.5260 cx         1 19R      -0.099900
     16 C16          5.5580     0.2590     3.7890 c3         1 19R       0.141500
     17 C17          6.6220    -0.2020     2.7450 c3         1 19R       0.139800
     18 C18          8.0200     0.0560     3.2910 c3         1 19R      -0.139600
     19 C19          6.4520    -1.6820     2.4160 c3         1 19R      -0.139600
     20 O20          6.3700     0.5810     1.5790 oh         1 19R      -0.625800
     21 C21          5.8320     1.6780     4.2690 c3         1 19R      -0.125100
     22 H1          -0.7180    -0.0710    -0.9140 h4         1 19R       0.062100
     23 H2           0.4740     0.2650     5.5410 h4         1 19R       0.214000
     24 H3          -1.5030     0.2140     3.9260 hn         1 19R       0.346700
     25 H4           1.1970    -0.1620    -2.1450 hc         1 19R       0.106700
     26 H5           4.0400     0.9400     2.5520 hn         1 19R       0.473800
     27 H6           3.7680     1.0890    -0.7940 hc         1 19R       0.083700
     28 H7           3.4020     1.0140    -2.5860 hc         1 19R       0.083700
     29 H8           3.2920    -1.5620    -2.4530 hc         1 19R       0.083700
     30 H9           3.6560    -1.4820    -0.6600 hc         1 19R       0.083700
     31 H10          5.6000    -0.4510     4.6690 hx         1 19R       0.115700
     32 H11          8.1200    -0.3630     4.3200 hc         1 19R       0.064367
     33 H12          8.7800    -0.4320     2.6330 hc         1 19R       0.064367
     34 H13          8.2330     1.1530     3.3140 hc         1 19R       0.064367
     35 H14          6.3120    -2.2780     3.3480 hc         1 19R       0.064367
     36 H15          7.3650    -2.0610     1.8930 hc         1 19R       0.064367
     37 H16          5.5870    -1.8460     1.7290 hc         1 19R       0.064367
     38 H17          7.1340     0.4870     0.9950 ho         1 19R       0.440000
     39 H18          5.9740     2.3700     3.4020 hc         1 19R       0.077367
     40 H19          6.7680     1.6740     4.8830 hc         1 19R       0.077367
     41 H20          5.0030     2.0530     4.9180 hc         1 19R       0.077367
     42 H132         4.1130    -0.7140     2.6470 hn         1 19R       0.473800
@<TRIPOS>BOND
     1     1     2 ar  
     2     1     4 ar  
     3     1    22 1   
     4     2     3 ar  
     5     2    12 1   
     6     3     6 ar  
     7     4     5 ar  
     8     5     6 ar  
     9     5     9 1   
    10     6     7 1   
    11     7     8 2   
    12     7    10 1   
    13     8     9 1   
    14     8    23 1   
    15     9    24 1   
    16    10    11 2   
    17    10    13 1   
    18    12    14 1   
    19    12    15 1   
    20    12    25 1   
    21    13    16 1   
    22    13    26 1   
    23    13    42 1   
    24    14    15 1   
    25    14    27 1   
    26    14    28 1   
    27    15    29 1   
    28    15    30 1   
    29    16    17 1   
    30    16    21 1   
    31    16    31 1   
    32    17    18 1   
    33    17    19 1   
    34    17    20 1   
    35    18    32 1   
    36    18    33 1   
    37    18    34 1   
    38    19    35 1   
    39    19    36 1   
    40    19    37 1   
    41    20    38 1   
    42    21    39 1   
    43    21    40 1   
    44    21    41 1   
@<TRIPOS>SUBSTRUCTURE
     1 19R         1 TEMP              0 ****  ****    0 ROOT
