@<TRIPOS>MOLECULE
19S
   48    51     1     0     0
SMALL
bcc


@<TRIPOS>ATOM
      1 N1           0.0000     0.0000     0.0000 n          1 19S      -0.139800
      2 C2           1.4690     0.0000     0.0000 c3         1 19S       0.041000
      3 C3           1.9620     0.0000     1.4510 c3         1 19S      -0.041400
      4 C4           1.3330     1.1780     2.1990 c3         1 19S      -0.027400
      5 C5          -0.1900     1.0250     2.2050 c3         1 19S      -0.041400
      6 C6          -0.7070     1.0400     0.7590 c3         1 19S       0.041000
      7 N7          -6.5740    -6.8690    -0.7580 nb         1 19S      -0.542000
      8 C8          -7.5770    -5.2160     0.5800 ca         1 19S       0.270300
      9 C9          -7.5790    -6.4760     0.0030 ca         1 19S       0.290900
     10 N10         -6.5660    -4.3910     0.3760 nb         1 19S      -0.449000
     11 C11         -5.5520    -4.7730    -0.3870 ca         1 19S       0.313800
     12 C12         -5.5510    -6.0530    -0.9750 ca         1 19S       0.093500
     13 N13         -4.3880    -6.1730    -1.7030 na         1 19S       0.292900
     14 C14         -3.6510    -5.0390    -1.6080 cc         1 19S      -0.233100
     15 C15         -4.2960    -4.1330    -0.8180 cd         1 19S      -0.322000
     16 N17         -2.6520    -2.3330    -0.9410 ns         1 19S      -0.190900
     17 O18         -4.5090    -2.0740     0.2510 o          1 19S      -0.639100
     18 C19         -2.1890    -0.9870    -0.5920 c3         1 19S      -0.057300
     19 C20         -8.7320    -4.7860     1.4470 cx         1 19S      -0.143000
     20 C21        -10.1230    -5.3060     1.0780 cx         1 19S      -0.080900
     21 C22         -9.4040    -5.8550     2.3120 cx         1 19S      -0.080900
     22 C23         -0.6860    -0.9330    -0.6900 c          1 19S       0.586100
     23 C24         -2.8000     0.0290    -1.5570 c3         1 19S      -0.009100
     24 O25         -0.0950    -1.7290    -1.3870 o          1 19S      -0.661100
     25 H1           1.8320    -0.8870    -0.5060 h1         1 19S       0.033700
     26 H2           1.8320     0.8870    -0.5060 h1         1 19S       0.033700
     27 H3           3.0410     0.0990     1.4650 hc         1 19S       0.023200
     28 H4           1.6720    -0.9270     1.9300 hc         1 19S       0.023200
     29 H5           1.6000     2.1030     1.7030 hc         1 19S       0.017200
     30 H6           1.6970     1.1920     3.2190 hc         1 19S       0.017200
     31 H7          -0.6320     1.8480     2.7550 hc         1 19S       0.023200
     32 H8          -0.4560     0.0860     2.6730 hc         1 19S       0.023200
     33 H9          -0.5140     2.0090     0.3140 h1         1 19S       0.033700
     34 H10         -1.7710     0.8360     0.7520 h1         1 19S       0.033700
     35 H12         -4.1250    -6.9830    -2.2280 hn         1 19S       0.120700
     36 H13         -2.6930    -4.8770    -2.0870 h4         1 19S       0.149000
     37 H14         -2.1110    -2.9030    -1.5610 hn         1 19S       0.193500
     38 H15         -2.4940    -0.7520     0.4210 h1         1 19S       0.069700
     39 H16         -8.7200    -3.7940     1.8810 hc         1 19S       0.074700
     40 H17        -10.1610    -5.9720     0.2250 hc         1 19S       0.047700
     41 H18        -10.9430    -4.6280     1.2780 hc         1 19S       0.047700
     42 H19         -9.7850    -5.5120     3.2660 hc         1 19S       0.047700
     43 H20         -9.0030    -6.8560     2.2120 hc         1 19S       0.047700
     44 H21         -2.0170     0.6590    -1.9610 hc         1 19S       0.015033
     45 H22         -3.5200     0.6420    -1.0290 hc         1 19S       0.015033
     46 H23         -3.2960    -0.4940    -2.3660 hc         1 19S       0.015033
     47 C16         -3.8310    -2.7840    -0.4680 c          1 19S       0.626300
     48 H11         -8.4130    -7.1450     0.1770 h4         1 19S      -0.003900
@<TRIPOS>BOND
     1     1     2 1   
     2     1     6 1   
     3     1    22 1   
     4     2     3 1   
     5     2    25 1   
     6     2    26 1   
     7     3     4 1   
     8     3    27 1   
     9     3    28 1   
    10     4     5 1   
    11     4    29 1   
    12     4    30 1   
    13     5     6 1   
    14     5    31 1   
    15     5    32 1   
    16     6    33 1   
    17     6    34 1   
    18     7     9 ar  
    19     7    12 ar  
    20     8     9 ar  
    21     8    10 ar  
    22     8    19 1   
    23     9    48 1   
    24    10    11 ar  
    25    11    12 ar  
    26    11    15 1   
    27    12    13 1   
    28    13    14 1   
    29    13    35 1   
    30    14    15 2   
    31    14    36 1   
    32    15    47 1   
    33    16    18 1   
    34    16    37 1   
    35    16    47 1   
    36    17    47 2   
    37    18    22 1   
    38    18    23 1   
    39    18    38 1   
    40    19    20 1   
    41    19    21 1   
    42    19    39 1   
    43    20    21 1   
    44    20    40 1   
    45    20    41 1   
    46    21    42 1   
    47    21    43 1   
    48    22    24 2   
    49    23    44 1   
    50    23    45 1   
    51    23    46 1   
@<TRIPOS>SUBSTRUCTURE
     1 19S         1 TEMP              0 ****  ****    0 ROOT
