@<TRIPOS>MOLECULE
19S
   49    52     1     0     0
SMALL
bcc


@<TRIPOS>ATOM
      1 N1           0.2260    -0.1420     0.2490 n          1 19S      -0.420800
      2 C2           1.6600    -0.1000     0.0360 c3         1 19S       0.077000
      3 C3           2.4680    -0.0140     1.3330 c3         1 19S      -0.100900
      4 C4           2.0590    -1.1020     2.3020 c3         1 19S      -0.084400
      5 C5           0.5640    -1.0880     2.5360 c3         1 19S      -0.100900
      6 C6          -0.2070    -1.1450     1.2180 c3         1 19S       0.077000
      7 N7          -4.8400     7.0870    -1.2300 nb         1 19S      -0.580000
      8 C8          -4.9100     4.8730    -2.3080 ca         1 19S       0.389300
      9 C9          -5.4620     6.1730    -1.9760 ca         1 19S       0.316900
     10 N10         -3.6940     4.4890    -1.8720 nb         1 19S      -0.679000
     11 C11         -3.0360     5.3910    -1.1060 ca         1 19S       0.337800
     12 C12         -3.6080     6.6940    -0.7850 ca         1 19S       0.297500
     13 N13         -2.6800     7.3940     0.0190 na         1 19S      -0.224100
     14 C14         -1.5810     6.6000     0.2100 cc         1 19S       0.066900
     15 C15         -1.7400     5.3560    -0.4560 cd         1 19S      -0.420000
     16 N17         -1.1920     3.0490    -1.1670 ny         1 19S      -0.662800
     17 O18          0.3410     4.3110     0.0900 o          1 19S      -0.478100
     18 C19         -0.1910     1.9270    -1.1480 c3         1 19S       0.047500
     19 C20         -5.7400     3.9840    -3.1430 cx         1 19S      -0.217000
     20 C21         -5.1140     3.0250    -4.1290 cx         1 19S      -0.099400
     21 C22         -5.7690     2.4920    -2.8970 cx         1 19S      -0.099400
     22 C23         -0.6490     0.8310    -0.1440 c          1 19S       0.645100
     23 C24         -0.0360     1.3030    -2.5290 c3         1 19S      -0.128100
     24 O25         -1.8530     0.8390     0.2090 o          1 19S      -0.624100
     25 C16         -0.7690     4.3080    -0.4370 c          1 19S       0.613300
     26 H1           1.9360    -1.0560    -0.5010 h1         1 19S       0.067950
     27 H2           1.9460     0.7590    -0.6290 h1         1 19S       0.067950
     28 H3           2.3270     0.9920     1.8070 hc         1 19S       0.061950
     29 H4           3.5540    -0.1190     1.0720 hc         1 19S       0.061950
     30 H5           2.5950    -0.9580     3.2760 hc         1 19S       0.059200
     31 H6           2.3660    -2.1020     1.8950 hc         1 19S       0.059200
     32 H7           0.2630    -1.9760     3.1510 hc         1 19S       0.061950
     33 H8           0.2760    -0.1680     3.1080 hc         1 19S       0.061950
     34 H9          -0.0420    -2.1510     0.7350 h1         1 19S       0.067950
     35 H10         -1.3090    -1.0230     1.4210 h1         1 19S       0.067950
     36 H13         -0.7200     6.9300     0.8090 h4         1 19S       0.214000
     37 H14         -1.4010     3.2980    -2.1420 hn         1 19S       0.483800
     38 H15          0.7970     2.3670    -0.8080 hx         1 19S       0.137700
     39 H16         -6.6930     4.4710    -3.4410 hc         1 19S       0.106700
     40 H17         -5.6110     2.8940    -5.1080 hc         1 19S       0.083950
     41 H18         -4.0140     2.9860    -4.2200 hc         1 19S       0.083950
     42 H19         -5.1460     2.0670    -2.0900 hc         1 19S       0.083950
     43 H20         -6.7420     1.9740    -2.9800 hc         1 19S       0.083950
     44 H21         -0.9970     0.8570    -2.8850 hc         1 19S       0.079700
     45 H22          0.3180     2.0580    -3.2740 hc         1 19S       0.079700
     46 H23          0.7270     0.4860    -2.4730 hc         1 19S       0.079700
     47 H11         -6.4640     6.4580    -2.3510 h4         1 19S       0.063100
     48 H172        -2.0750     2.7110    -0.7300 hn         1 19S       0.483800
     49 H12         -2.8250     8.3090     0.3800 hn         1 19S       0.346700
@<TRIPOS>BOND
     1     1     2 1   
     2     1     6 1   
     3     1    22 1   
     4     2     3 1   
     5     2    26 1   
     6     2    27 1   
     7     3     4 1   
     8     3    28 1   
     9     3    29 1   
    10     4     5 1   
    11     4    30 1   
    12     4    31 1   
    13     5     6 1   
    14     5    32 1   
    15     5    33 1   
    16     6    34 1   
    17     6    35 1   
    18     7     9 ar  
    19     7    12 ar  
    20     8     9 ar  
    21     8    10 ar  
    22     8    19 1   
    23     9    47 1   
    24    10    11 ar  
    25    11    12 ar  
    26    11    15 1   
    27    12    13 1   
    28    13    14 1   
    29    13    49 1   
    30    14    15 2   
    31    14    36 1   
    32    15    25 1   
    33    16    18 1   
    34    16    25 1   
    35    16    37 1   
    36    16    48 1   
    37    17    25 2   
    38    18    22 1   
    39    18    23 1   
    40    18    38 1   
    41    19    20 1   
    42    19    21 1   
    43    19    39 1   
    44    20    21 1   
    45    20    40 1   
    46    20    41 1   
    47    21    42 1   
    48    21    43 1   
    49    22    24 2   
    50    23    44 1   
    51    23    45 1   
    52    23    46 1   
@<TRIPOS>SUBSTRUCTURE
     1 19S         1 TEMP              0 ****  ****    0 ROOT
