@<TRIPOS>MOLECULE
molecule
   43    45     1     0     0
SMALL
bcc


@<TRIPOS>ATOM
      1 C2           0.0000     0.0000     0.0000 ca         1 19T       0.800500
      2 C4           2.0080     0.0000     1.1360 ca         1 19T       0.495600
      3 C5           1.3230    -0.0000     2.3360 ca         1 19T      -0.407900
      4 C9          -2.3150     0.0170    -3.2240 cc         1 19T       0.045300
      5 O26         -8.1830    -1.9720     4.2610 o          1 19T      -0.843800
      6 C24         -6.8800    -1.6630     4.1540 c          1 19T       0.892600
      7 O25         -6.0510    -2.3400     4.7150 o          1 19T      -0.843800
      8 C20         -4.9510    -0.3490     3.3730 ca         1 19T      -0.011300
      9 C19         -4.3490     0.4040     4.3650 ca         1 19T      -0.109500
     10 C18         -2.9740     0.5230     4.4040 ca         1 19T      -0.143000
     11 C21         -4.1790    -0.9920     2.4230 ca         1 19T      -0.109500
     12 C22         -2.8030    -0.8780     2.4580 ca         1 19T      -0.143000
     13 C17         -2.1950    -0.1180     3.4490 ca         1 19T       0.096600
     14 C6          -0.0750    -0.0000     2.3060 ca         1 19T       0.742200
     15 C14          2.0650    -0.0000     3.6470 c3         1 19T      -0.023100
     16 C15          2.3170     1.4420     4.0910 c3         1 19T      -0.094100
     17 C13          3.5150    -0.0000     1.1210 c3         1 19T      -0.140400
     18 N3           1.3280     0.0000     0.0000 nb         1 19T      -0.784000
     19 N7          -0.6950    -0.0010     1.1320 nb         1 19T      -0.786000
     20 C7          -0.7190     0.0060    -1.2870 cc         1 19T      -0.089600
     21 C11         -0.1380     0.0060    -2.5050 cd         1 19T      -0.120000
     22 C10         -1.0180     0.0120    -3.5640 cd         1 19T      -0.167000
     23 S8          -2.4690     0.0130    -1.4720 ss         1 19T       0.004200
     24 H2          -6.9020     0.4240     3.7360 hc         1 19T       0.040700
     25 H3          -6.7750    -0.6100     2.3060 hc         1 19T       0.040700
     26 H4          -4.9570     0.9030     5.1090 ha         1 19T       0.132000
     27 H5          -2.5030     1.1150     5.1800 ha         1 19T       0.122500
     28 H6          -4.6530    -1.5850     1.6510 ha         1 19T       0.132000
     29 H7          -2.1980    -1.3800     1.7130 ha         1 19T       0.122500
     30 H8          -0.3310     0.0710     4.3660 hn         1 19T       0.452800
     31 H9           3.0130    -0.5110     3.5260 hc         1 19T       0.045200
     32 H10          1.4730    -0.5100     4.3970 hc         1 19T       0.045200
     33 H11          3.3840     1.6190     4.1540 hc         1 19T       0.035700
     34 H12          1.8660     1.6050     5.0620 hc         1 19T       0.035700
     35 H13          1.8800     2.1230     3.3710 hc         1 19T       0.035700
     36 H14          3.8820     0.9020     1.5960 hc         1 19T       0.050700
     37 H15          3.8820    -0.8660     1.6590 hc         1 19T       0.050700
     38 H16          3.8660    -0.0370     0.0970 hc         1 19T       0.050700
     39 H17          0.9370     0.0020    -2.6390 ha         1 19T       0.166000
     40 H18         -0.6870     0.0130    -4.5960 ha         1 19T       0.150000
     41 N16         -0.8030     0.0000     3.4860 nu         1 19T      -0.749300
     42 Cl1         -3.6410     0.0310    -4.3440 cl         1 19T      -0.066400
     43 C23         -6.4530    -0.4750     3.3310 c3         1 19T      -0.154100
@<TRIPOS>BOND
     1    42     4 1   
     2    22     4 2   
     3    22    21 1   
     4     4    23 1   
     5    21    20 2   
     6    20    23 1   
     7    20     1 1   
     8    18     1 ar  
     9    18     2 ar  
    10     1    19 ar  
    11    16    15 1   
    12    17     2 1   
    13     2     3 ar  
    14    19    14 ar  
    15    10     9 ar  
    16    10    13 ar  
    17     3    14 ar  
    18     3    15 1   
    19    14    41 1   
    20     9     8 ar  
    21    41    13 1   
    22    13    12 ar  
    23     8    43 1   
    24     8    11 ar  
    25     7     6 1   
    26    43     6 1   
    27    12    11 ar  
    28     6     5 1   
    29    43    24 1   
    30    43    25 1   
    31     9    26 1   
    32    10    27 1   
    33    11    28 1   
    34    12    29 1   
    35    41    30 1   
    36    15    31 1   
    37    15    32 1   
    38    16    33 1   
    39    16    34 1   
    40    16    35 1   
    41    17    36 1   
    42    17    37 1   
    43    17    38 1   
    44    21    39 1   
    45    22    40 1   
@<TRIPOS>SUBSTRUCTURE
     1 19T         1 TEMP              0 ****  ****    0 ROOT
