@<TRIPOS>MOLECULE
19T
   43    45     1     0     0
SMALL
bcc


@<TRIPOS>ATOM
      1 C2           0.0000     0.0000     0.0000 ca         1 19T       0.725500
      2 C4           2.0080     0.0000     1.1360 ca         1 19T       0.455600
      3 C5           1.3230    -0.0000     2.3360 ca         1 19T      -0.424900
      4 C9          -2.3150     0.0170    -3.2240 cc         1 19T       0.034300
      5 O26         -8.1830    -1.9720     4.2610 o          1 19T      -0.895300
      6 C24         -6.8800    -1.6630     4.1540 c          1 19T       0.981600
      7 O25         -6.0510    -2.3400     4.7150 o          1 19T      -0.895300
      8 C20         -4.9510    -0.3490     3.3730 ca         1 19T       0.002700
      9 C19         -4.3490     0.4040     4.3650 ca         1 19T      -0.083000
     10 C18         -2.9740     0.5230     4.4040 ca         1 19T      -0.115500
     11 C21         -4.1790    -0.9920     2.4230 ca         1 19T      -0.083000
     12 C22         -2.8030    -0.8780     2.4580 ca         1 19T      -0.115500
     13 C17         -2.1950    -0.1180     3.4490 ca         1 19T      -0.074400
     14 C6          -0.0750    -0.0000     2.3060 ca         1 19T       0.543200
     15 C14          2.0650    -0.0000     3.6470 c3         1 19T       0.045900
     16 C15          2.3170     1.4420     4.0910 c3         1 19T      -0.002100
     17 C13          3.5150    -0.0000     1.1210 c3         1 19T      -0.045400
     18 N3           1.3280     0.0000     0.0000 nb         1 19T      -0.685000
     19 N7          -0.6950    -0.0010     1.1320 nb         1 19T      -0.669000
     20 C7          -0.7190     0.0060    -1.2870 cc         1 19T      -0.026600
     21 C11         -0.1380     0.0060    -2.5050 cd         1 19T      -0.103000
     22 C10         -1.0180     0.0120    -3.5640 cd         1 19T      -0.141000
     23 S8          -2.4690     0.0130    -1.4720 ss         1 19T      -0.180800
     24 H2          -6.9020     0.4240     3.7360 hc         1 19T       0.014200
     25 H3          -6.7750    -0.6100     2.3060 hc         1 19T       0.014200
     26 H4          -4.9570     0.9030     5.1090 ha         1 19T       0.107000
     27 H5          -2.5030     1.1150     5.1800 ha         1 19T       0.102500
     28 H6          -4.6530    -1.5850     1.6510 ha         1 19T       0.107000
     29 H7          -2.1980    -1.3800     1.7130 ha         1 19T       0.102500
     30 H8          -0.3310     0.0710     4.3660 hn         1 19T       0.285800
     31 H9           3.0130    -0.5110     3.5260 hc         1 19T       0.018200
     32 H10          1.4730    -0.5100     4.3970 hc         1 19T       0.018200
     33 H11          3.3840     1.6190     4.1540 hc         1 19T       0.004033
     34 H12          1.8660     1.6050     5.0620 hc         1 19T       0.004033
     35 H13          1.8800     2.1230     3.3710 hc         1 19T       0.004033
     36 H14          3.8820     0.9020     1.5960 hc         1 19T       0.014033
     37 H15          3.8820    -0.8660     1.6590 hc         1 19T       0.014033
     38 H16          3.8660    -0.0370     0.0970 hc         1 19T       0.014033
     39 H17          0.9370     0.0020    -2.6390 ha         1 19T       0.135000
     40 H18         -0.6870     0.0130    -4.5960 ha         1 19T       0.121000
     41 N16         -0.8030     0.0000     3.4860 nu         1 19T      -0.270300
     42 Cl1         -3.6410     0.0310    -4.3440 cl         1 19T       0.038600
     43 C23         -6.4530    -0.4750     3.3310 c3         1 19T      -0.096100
@<TRIPOS>BOND
     1     1    18 ar  
     2     1    19 ar  
     3     1    20 1   
     4     2     3 ar  
     5     2    17 1   
     6     2    18 ar  
     7     3    14 ar  
     8     3    15 1   
     9     4    22 2   
    10     4    23 1   
    11     4    42 1   
    12     5     6 1   
    13     6     7 1   
    14     6    43 1   
    15     8     9 ar  
    16     8    11 ar  
    17     8    43 1   
    18     9    10 ar  
    19     9    26 1   
    20    10    13 ar  
    21    10    27 1   
    22    11    12 ar  
    23    11    28 1   
    24    12    13 ar  
    25    12    29 1   
    26    13    41 1   
    27    14    19 ar  
    28    14    41 1   
    29    15    16 1   
    30    15    31 1   
    31    15    32 1   
    32    16    33 1   
    33    16    34 1   
    34    16    35 1   
    35    17    36 1   
    36    17    37 1   
    37    17    38 1   
    38    20    21 2   
    39    20    23 1   
    40    21    22 1   
    41    21    39 1   
    42    22    40 1   
    43    24    43 1   
    44    25    43 1   
    45    30    41 1   
@<TRIPOS>SUBSTRUCTURE
     1 19T         1 TEMP              0 ****  ****    0 ROOT
