@<TRIPOS>MOLECULE
19T
   43    45     1     0     0
SMALL
bcc


@<TRIPOS>ATOM
      1 C2           0.0090     0.0580    -0.0440 ca         1 19T       0.772500
      2 C4           1.9860     0.2010     1.1560 ca         1 19T       0.472600
      3 C5           1.2740     0.1900     2.3740 ca         1 19T      -0.390900
      4 C9          -2.3360    -0.2540    -3.1040 cc         1 19T      -0.071700
      5 O26         -7.8950    -1.8950     2.3240 o          1 19T      -0.837300
      6 C24         -7.3200    -0.8020     2.5790 c          1 19T       0.919600
      7 O25         -7.3650     0.2220     1.8390 o          1 19T      -0.837300
      8 C20         -5.0950    -0.4810     3.7520 ca         1 19T      -0.009300
      9 C19         -4.6180     0.4960     2.8660 ca         1 19T      -0.132500
     10 C18         -3.2560     0.7440     2.7340 ca         1 19T      -0.139500
     11 C21         -4.1660    -1.2280     4.4880 ca         1 19T      -0.132500
     12 C22         -2.8000    -0.9990     4.3620 ca         1 19T      -0.139500
     13 C17         -2.3260     0.0020     3.4890 ca         1 19T       0.067600
     14 C6          -0.1690     0.1560     2.2850 ca         1 19T       0.699200
     15 C14          1.9790     0.2050     3.6790 c3         1 19T      -0.014100
     16 C15          2.0460     1.5850     4.2910 c3         1 19T      -0.095100
     17 C13          3.4810     0.2870     1.1730 c3         1 19T      -0.150400
     18 N3           1.3750     0.1350    -0.0540 nb         1 19T      -0.740000
     19 N7          -0.7890     0.0670     1.0660 nb         1 19T      -0.753000
     20 C7          -0.6910    -0.0450    -1.3280 cc         1 19T      -0.218600
     21 C11         -0.0890    -0.0230    -2.5820 cd         1 19T      -0.112000
     22 C10         -1.0480    -0.1440    -3.6190 cd         1 19T      -0.181000
     23 S8          -2.3510    -0.2090    -1.4390 ss         1 19T       0.236200
     24 H2          -6.9820     0.1690     4.4800 hc         1 19T       0.039700
     25 H3          -6.7400    -1.6320     4.5110 hc         1 19T       0.039700
     26 H4          -5.3600     1.0450     2.2520 ha         1 19T       0.159000
     27 H5          -2.9130     1.5170     2.0310 ha         1 19T       0.120000
     28 H6          -4.5210    -2.0150     5.1700 ha         1 19T       0.159000
     29 H7          -2.0970    -1.6050     4.9520 ha         1 19T       0.120000
     30 H8          -0.4510     0.0530     4.2810 hn         1 19T       0.415800
     31 H9           3.0260    -0.1860     3.5510 hc         1 19T       0.038200
     32 H10          1.4860    -0.5040     4.3990 hc         1 19T       0.038200
     33 H11          2.6000     2.2830     3.6170 hc         1 19T       0.036700
     34 H12          2.5770     1.5420     5.2720 hc         1 19T       0.036700
     35 H13          1.0230     2.0000     4.4580 hc         1 19T       0.036700
     36 H14          3.9030    -0.6720     1.5650 hc         1 19T       0.050700
     37 H15          3.7990     1.1260     1.8400 hc         1 19T       0.050700
     38 H16          3.9030     0.4650     0.1530 hc         1 19T       0.050700
     39 H17          0.9850     0.0750    -2.7570 ha         1 19T       0.164000
     40 H18         -0.7960    -0.1500    -4.6810 ha         1 19T       0.153000
     41 N16         -0.9350     0.2950     3.4410 nu         1 19T      -0.706300
     42 Cl1         -3.7150    -0.4140    -4.0390 cl         1 19T      -0.036400
     43 C23         -6.5490    -0.7010     3.9180 c3         1 19T      -0.180100
@<TRIPOS>BOND
     1     1    18 ar  
     2     1    19 ar  
     3     1    20 1   
     4     2     3 ar  
     5     2    17 1   
     6     2    18 ar  
     7     3    14 ar  
     8     3    15 1   
     9     4    22 2   
    10     4    23 1   
    11     4    42 1   
    12     5     6 1   
    13     6     7 1   
    14     6    43 1   
    15     8     9 ar  
    16     8    11 ar  
    17     8    43 1   
    18     9    10 ar  
    19     9    26 1   
    20    10    13 ar  
    21    10    27 1   
    22    11    12 ar  
    23    11    28 1   
    24    12    13 ar  
    25    12    29 1   
    26    13    41 1   
    27    14    19 ar  
    28    14    41 1   
    29    15    16 1   
    30    15    31 1   
    31    15    32 1   
    32    16    33 1   
    33    16    34 1   
    34    16    35 1   
    35    17    36 1   
    36    17    37 1   
    37    17    38 1   
    38    20    21 2   
    39    20    23 1   
    40    21    22 1   
    41    21    39 1   
    42    22    40 1   
    43    24    43 1   
    44    25    43 1   
    45    30    41 1   
@<TRIPOS>SUBSTRUCTURE
     1 19T         1 TEMP              0 ****  ****    0 ROOT
