@<TRIPOS>MOLECULE
19V
   87    89     1     0     0
SMALL
bcc


@<TRIPOS>ATOM
      1 C1          0.2930   -0.7850   -2.1710 c3        1 19V     -0.016000
      2 C2          0.9750   -1.3830   -0.9250 c3        1 19V     -0.153000
      3 C3          2.4720   -1.4370   -1.0260 c2        1 19V     -0.065000
      4 C4          3.0650   -1.0180    0.1120 c2        1 19V     -0.190000
      5 C5          1.7260    1.2700   -2.4410 c3        1 19V     -0.214000
      6 C6          0.3270    0.7580   -2.1780 c3        1 19V     -0.114000
      7 C8         -0.2420    1.3310   -0.8890 c3        1 19V     -0.232000
      8 C9          2.0680   -0.5600    1.1330 c3        1 19V     -0.095000
      9 C10         0.1210    0.6940    0.3550 c1        1 19V     -0.042000
     10 C11         4.5230   -1.0050    0.3340 c2        1 19V      0.354000
     11 C15        -6.2620    0.9270   -2.0660 c2        1 19V     -0.212000
     12 C16        -5.9250    0.1500   -3.1530 c2        1 19V      0.057000
     13 C18        -6.0530   -0.0100   -5.8450 c3        1 19V     -0.051000
     14 C20        -7.4640   -2.0480   -5.8060 c2        1 19V      0.229000
     15 C21        -7.5840   -2.0600   -7.2800 c2        1 19V     -0.265000
     16 C24        -8.3740   -4.2020   -5.6460 c1        1 19V     -0.082000
     17 C25        -2.7090    2.2960   -8.9520 c3        1 19V     -0.033000
     18 C26        -2.0510    2.3520  -10.3180 c2        1 19V     -0.111000
     19 C28        -4.9050    1.2770   -9.1260 c2        1 19V     -0.044000
     20 C31        -0.4040    0.2810  -12.5540 c3        1 19V     -0.212333
     21 C32        -2.4910    1.1990  -13.5480 c3        1 19V     -0.212333
     22 N7         -2.0790    1.3720  -11.1400 n2        1 19V     -0.178000
     23 C30        -0.7000    2.7320  -12.7800 c3        1 19V     -0.212333
     24 C27        -5.7050    0.2290   -9.3880 c2        1 19V     -0.332000
     25 N6         -3.5890    1.1930   -8.6530 n3        1 19V     -0.279000
     26 C23        -8.5340   -4.3310   -7.1230 c3        1 19V     -0.247000
     27 C22        -8.1180   -3.1390   -7.8910 c2        1 19V     -0.059000
     28 N5         -7.9150   -3.1180   -5.0610 n2        1 19V     -0.288000
     29 N3         -6.9290   -0.9470   -5.1800 n3        1 19V     -0.230000
     30 C19        -4.6420    0.0060   -5.2200 c3        1 19V     -0.052000
     31 C17        -6.9470   -0.8450   -3.7150 c3        1 19V      0.050000
     32 C14        -8.3290   -0.6610   -3.1580 c2        1 19V     -0.102000
     33 C13        -8.5770    0.1620   -2.1160 c2        1 19V     -0.186000
     34 C12        -7.6010    1.0950   -1.6630 c1        1 19V     -0.066000
     35 N4         -4.6750    0.2030   -3.7840 n         1 19V     -0.300000
     36 C33        -3.4740    0.4910   -3.1350 c2        1 19V      0.281000
     37 O2         -3.3770    0.6740   -1.9140 o         1 19V     -0.341000
     38 N1         -1.0610   -1.2680   -2.3890 n3        1 19V     -0.359000
     39 C7          0.6980   -0.6430    0.4060 c3        1 19V     -0.157000
     40 O1          5.3330   -1.3290   -0.5630 o         1 19V     -0.381000
     41 N2          4.9950   -0.6280    1.5690 n         1 19V     -0.434000
     42 H1         -1.0850   -2.2680   -2.3400 hn        1 19V      0.150500
     43 H2          0.8940   -1.1370   -3.0670 h1        1 19V      0.099000
     44 H3          0.6290   -2.4530   -0.8120 hc        1 19V      0.101000
     45 H4          2.9780   -1.8010   -1.9250 ha        1 19V      0.161000
     46 H5          2.4240    0.9650   -1.6230 hc        1 19V      0.079333
     47 H6          1.7200    2.3850   -2.5040 hc        1 19V      0.079333
     48 H7          2.1150    0.8640   -3.4060 hc        1 19V      0.079333
     49 H8         -0.3230    1.1130   -3.0300 hc        1 19V      0.089000
     50 H9         -1.3790    1.2890   -0.9160 hc        1 19V      0.154000
     51 H10         0.0210    2.4250   -0.8140 hc        1 19V      0.154000
     52 H11         2.2780    0.4840    1.4780 hc        1 19V      0.103000
     53 H12         2.0680   -1.2300    2.0280 hc        1 19V      0.103000
     54 H13        -5.4950    1.5260   -1.5420 ha        1 19V      0.175000
     55 H14        -6.5130    1.0170   -5.7610 h1        1 19V      0.124500
     56 H15        -5.9210   -0.2480   -6.9390 h1        1 19V      0.124500
     57 H16        -7.3000   -1.1730   -7.8680 ha        1 19V      0.146000
     58 H17        -7.9260   -5.2260   -7.4400 hc        1 19V      0.150000
     59 H19        -1.8710    2.2600   -8.1940 h1        1 19V      0.105000
     60 H20        -3.2680    3.2650   -8.8120 h1        1 19V      0.105000
     61 H21        -1.5460    3.3280  -10.4890 h4        1 19V      0.107000
     62 H22        -3.1600    0.3060   -8.8400 hn        1 19V      0.193000
     63 H23        -5.2990    2.3110   -9.1900 h4        1 19V      0.133000
     64 H24         0.4180    0.4220  -11.8130 hc        1 19V      0.081111
     65 H25        -0.8900   -0.7070  -12.3720 hc        1 19V      0.081111
     66 H26         0.0340    0.2810  -13.5800 hc        1 19V      0.081111
     67 H27        -1.9810    1.1680  -14.5400 hc        1 19V      0.081111
     68 H28        -3.0280    0.2340  -13.3890 hc        1 19V      0.081111
     69 H29        -3.2350    2.0300  -13.5540 hc        1 19V      0.081111
     70 H31        -0.2460    2.6540  -13.7970 hc        1 19V      0.081111
     71 H32         0.1180    2.9260  -12.0460 hc        1 19V      0.081111
     72 H33        -1.4060    3.5960  -12.7760 hc        1 19V      0.081111
     73 H34        -6.7560    0.3810   -9.6580 ha        1 19V      0.119500
     74 H35        -5.3650   -0.8130   -9.3760 ha        1 19V      0.119500
     75 H36        -8.2760   -3.1480   -8.9820 ha        1 19V      0.131000
     76 H37        -4.1130   -0.9640   -5.4460 h1        1 19V      0.107000
     77 H38        -4.0640    0.8440   -5.7070 h1        1 19V      0.107000
     78 H39        -6.6040   -1.8500   -3.2760 h1        1 19V      0.180000
     79 H40        -9.1230   -1.2700   -3.6210 ha        1 19V      0.161000
     80 H41        -9.5750    0.1990   -1.6470 ha        1 19V      0.155000
     81 H42        -2.5970    0.5220   -3.8260 h5        1 19V      0.153000
     82 H43        -1.6900   -0.8920   -1.7040 hn        1 19V      0.150500
     83 H44        -0.0170   -1.2550    1.0280 hc        1 19V      0.139000
     84 H45         4.3810   -0.3580    2.2920 hn        1 19V      0.226500
     85 H46         5.9700   -0.6110    1.7310 hn        1 19V      0.226500
     86 H18        -9.6100   -4.5800   -7.3430 hc        1 19V      0.150000
     87 C29        -1.4330    1.4230  -12.4500 c3        1 19V      0.005000
@<TRIPOS>BOND
     1    1    2 1   
     2    1    6 1   
     3    1   38 1   
     4    1   43 1   
     5    2    3 1   
     6    2   39 1   
     7    2   44 1   
     8    3    4 1   
     9    3   45 1   
    10    4    8 1   
    11    4   10 1   
    12    5    6 1   
    13    5   46 1   
    14    5   47 1   
    15    5   48 1   
    16    6    7 1   
    17    6   49 1   
    18    7    9 1   
    19    7   50 1   
    20    7   51 1   
    21    8   39 1   
    22    8   52 1   
    23    8   53 1   
    24    9   39 1   
    25   10   40 1   
    26   10   41 1   
    27   11   12 1   
    28   11   34 1   
    29   11   54 1   
    30   12   31 1   
    31   12   35 1   
    32   13   29 1   
    33   13   30 1   
    34   13   55 1   
    35   13   56 1   
    36   14   15 1   
    37   14   28 1   
    38   14   29 1   
    39   15   27 1   
    40   15   57 1   
    41   16   26 1   
    42   16   28 1   
    43   17   18 1   
    44   17   25 1   
    45   17   59 1   
    46   17   60 1   
    47   18   22 1   
    48   18   61 1   
    49   19   24 1   
    50   19   25 1   
    51   19   63 1   
    52   20   64 1   
    53   20   65 1   
    54   20   66 1   
    55   20   87 1   
    56   21   67 1   
    57   21   68 1   
    58   21   69 1   
    59   21   87 1   
    60   22   87 1   
    61   23   70 1   
    62   23   71 1   
    63   23   72 1   
    64   23   87 1   
    65   24   73 1   
    66   24   74 1   
    67   25   62 1   
    68   26   27 1   
    69   26   58 1   
    70   26   86 1   
    71   27   75 1   
    72   29   31 1   
    73   30   35 1   
    74   30   76 1   
    75   30   77 1   
    76   31   32 1   
    77   31   78 1   
    78   32   33 1   
    79   32   79 1   
    80   33   34 1   
    81   33   80 1   
    82   35   36 1   
    83   36   37 1   
    84   36   81 1   
    85   38   42 1   
    86   38   82 1   
    87   39   83 1   
    88   41   84 1   
    89   41   85 1   
@<TRIPOS>SUBSTRUCTURE
     1 19V         1 TEMP              0 ****  ****    0 ROOT
