@<TRIPOS>MOLECULE
molecule
   88    94     1     0     0
SMALL
bcc


@<TRIPOS>ATOM
      1 C1           0.0000     0.0000     0.0000 c3         1 19V       0.148700
      2 C2           1.5300     0.0000     0.0000 c3         1 19V      -0.102200
      3 C3           2.0400     0.0000     1.4430 c3         1 19V      -0.094400
      4 C4           1.5300    -1.2500     2.1640 c3         1 19V      -0.101000
      5 C5           0.0000    -1.2490     2.1640 c3         1 19V      -0.094400
      6 C6          -0.5090    -1.2490     0.7220 c3         1 19V      -0.102200
      7 C8           0.0000    -2.4980     0.0000 c3         1 19V      -0.071400
      8 C9           2.0400    -2.4990     1.4420 c3         1 19V      -0.072400
      9 C10          1.5290    -2.4990    -0.0000 c3         1 19V      -0.021700
     10 C11          2.0330    -1.2500     3.5840 c          1 19V       0.482100
     11 C15         -4.6290     1.3660    -1.5000 ca         1 19V      -0.122000
     12 C16         -3.9090     1.0350    -2.6360 ca         1 19V       0.022600
     13 C18         -2.2860     0.6940    -4.9280 c3         1 19V       0.237800
     14 C20         -4.3740     0.7740    -6.2780 ca         1 19V       0.633200
     15 C21         -4.7870    -0.4840    -6.7080 ca         1 19V      -0.235300
     16 C24         -5.1860     1.7690    -8.1960 ca         1 19V       0.413200
     17 C25         -5.4030     1.8990   -11.4600 c3         1 19V       0.098800
     18 C26         -4.9340     1.7610   -12.9100 c3         1 19V       0.150800
     19 C28         -5.1430    -0.4870   -11.1490 c3         1 19V       0.098800
     20 C31         -3.4200     0.4770   -14.9880 c3         1 19V      -0.098767
     21 C32         -5.3160    -1.1170   -15.3030 c3         1 19V      -0.098767
     22 N7          -5.2950     0.4290   -13.4150 n3         1 19V      -0.724600
     23 C30         -5.6670     1.3290   -15.6700 c3         1 19V      -0.098767
     24 C27         -4.6750    -0.6250   -12.6000 c3         1 19V       0.150800
     25 N6          -4.7820     0.8450   -10.6450 nh         1 19V      -0.461000
     26 C23         -5.6190     0.5480    -8.6910 ca         1 19V      -0.122700
     27 C22         -5.4190    -0.6040    -7.9310 ca         1 19V      -0.089000
     28 N5          -4.5860     1.8470    -7.0230 nb         1 19V      -0.694000
     29 N3          -3.7370     0.9060    -5.0460 nh         1 19V      -0.723700
     30 C19         -2.0270    -0.1770    -3.6910 c3         1 19V      -0.021000
     31 C17         -4.4660     1.2420    -3.8980 ca         1 19V       0.181600
     32 C14         -5.7390     1.7790    -4.0100 ca         1 19V      -0.167000
     33 C13         -6.4520     2.1060    -2.8700 ca         1 19V      -0.098000
     34 C12         -5.9010     1.8940    -1.6210 ca         1 19V      -0.152000
     35 N4          -2.6170     0.4950    -2.5230 n          1 19V      -0.290000
     36 C33         -1.7100     0.4940    -1.6630 c          1 19V       0.768100
     37 O2          -2.3690     1.0220    -0.7900 o          1 19V      -0.736100
     38 N1          -0.4880     0.0000    -1.3810 ns         1 19V      -0.573900
     39 C7           2.0400    -1.2500    -0.7210 c3         1 19V      -0.071400
     40 O1           2.7300    -0.3400     3.9810 o          1 19V      -0.394100
     41 N2           1.7070    -2.2610     4.4140 nz         1 19V      -0.686400
     42 H1          -0.3610     0.8850     0.5110 h1         1 19V       0.092700
     43 H2           1.6320     1.0750    -0.0850 hc         1 19V       0.100200
     44 H3           2.1490     1.0740     1.5340 hc         1 19V       0.063950
     45 H4           3.0830    -0.2770     1.3470 hc         1 19V       0.063950
     46 H5          -0.3600    -0.3640     2.6740 hc         1 19V       0.063950
     47 H6          -0.3610    -2.1330     2.6740 hc         1 19V       0.063950
     48 H7          -1.5930    -1.2490     0.7220 hc         1 19V       0.100200
     49 H8          -0.8700    -2.6400    -0.6290 hc         1 19V       0.059950
     50 H9          -0.1660    -3.2950     0.7160 hc         1 19V       0.059950
     51 H10          3.1230    -2.4990     1.4420 hc         1 19V       0.047700
     52 H11          1.6780    -3.3840     1.9530 hc         1 19V       0.047700
     53 H12          1.8900    -3.3840    -0.5110 hc         1 19V       0.080700
     54 H13         -3.9290     1.2420    -0.6830 ha         1 19V       0.216000
     55 H14         -1.7870     1.6480    -4.8110 h1         1 19V       0.057700
     56 H15         -1.9180     0.1880    -5.8120 h1         1 19V       0.057700
     57 H16         -4.6120    -1.3580    -6.0920 ha         1 19V       0.144000
     58 H17         -4.6270     2.4390    -8.8380 h4         1 19V       0.045100
     59 H20         -3.8590     1.8840   -12.9550 h1         1 19V       0.051200
     60 H21         -5.4150     2.5180   -13.5180 h1         1 19V       0.051200
     61 H22         -4.6630    -1.2450   -10.5420 h1         1 19V       0.066450
     62 H23         -6.2190    -0.6090   -11.1050 h1         1 19V       0.066450
     63 H24         -2.8970    -0.2640   -14.3950 hc         1 19V       0.042256
     64 H25         -3.1440     1.4690   -14.6510 hc         1 19V       0.042256
     65 H26         -3.1480     0.3610   -16.0300 hc         1 19V       0.042256
     66 H27         -4.5850    -1.8330   -14.9470 hc         1 19V       0.042256
     67 H28         -6.2860    -1.3520   -14.8820 hc         1 19V       0.042256
     68 H29         -5.3710    -1.1640   -16.3840 hc         1 19V       0.042256
     69 H31         -6.6920     1.4070   -15.3300 hc         1 19V       0.042256
     70 H32         -5.6540     1.0690   -16.7220 hc         1 19V       0.042256
     71 H33         -5.1660     2.2790   -15.5270 hc         1 19V       0.042256
     72 H34         -3.5970    -0.5250   -12.6410 h1         1 19V       0.051200
     73 H35         -4.9680    -1.5950   -12.9820 h1         1 19V       0.051200
     74 H36         -5.7480    -1.5710    -8.2920 ha         1 19V       0.142000
     75 H37         -0.9580    -0.2710    -3.5420 h1         1 19V       0.054700
     76 H38         -2.5110    -1.1370    -3.8270 h1         1 19V       0.054700
     77 H39         -6.1730     1.9460    -4.9880 ha         1 19V       0.151000
     78 H40         -7.4490     2.5210    -2.9580 ha         1 19V       0.136000
     79 H41         -6.4650     2.1530    -0.7320 ha         1 19V       0.133000
     80 H42          0.1080    -0.3120    -2.1210 hn         1 19V       0.317500
     81 H43          3.1230    -1.2500    -0.7220 hc         1 19V       0.059950
     82 H44          1.6790    -1.2490    -1.7430 hc         1 19V       0.059950
     83 H45          0.7110    -2.3570     4.4480 hn         1 19V       0.476800
     84 H46          2.1140    -3.1120     4.0800 hn         1 19V       0.476800
     85 H18         -6.4810     1.7980   -11.4180 h1         1 19V       0.066450
     86 C29         -4.9290     0.2860   -14.8300 c3         1 19V       0.173200
     87 H231         1.9640    -2.0190     5.3510 hn         1 19V       0.476800
     88 H19         -5.1100     2.8690   -11.0770 h1         1 19V       0.066450
@<TRIPOS>BOND
     1    21    86 1   
     2    23    86 1   
     3    18    22 1   
     4    18    17 1   
     5    86    22 1   
     6    86    20 1   
     7    22    24 1   
     8    17    25 1   
     9    33    34 ar  
    10    33    32 ar  
    11    24    19 1   
    12    27    15 ar  
    13    27    26 ar  
    14    34    11 ar  
    15    25    26 1   
    16    25    19 1   
    17    15    14 ar  
    18    32    31 ar  
    19    26    16 ar  
    20    11    12 ar  
    21    31    12 ar  
    22    31    29 1   
    23    14    29 1   
    24    14    28 ar  
    25    12    35 1   
    26    16    28 ar  
    27    29    13 1   
    28    35    30 1   
    29    35    36 1   
    30    30    13 1   
    31     7     9 1   
    32     7     6 1   
    33     9    39 1   
    34     9     8 1   
    35    38    36 1   
    36    38     1 1   
    37    36    37 2   
    38    39     2 1   
    39     6     1 1   
    40     6     5 1   
    41     1     2 1   
    42     8     4 1   
    43     2     3 1   
    44     5     4 1   
    45     4     3 1   
    46     4    10 1   
    47    40    10 2   
    48    10    41 1   
    49     1    42 1   
    50     2    43 1   
    51     3    44 1   
    52     3    45 1   
    53     5    46 1   
    54     5    47 1   
    55     6    48 1   
    56     7    49 1   
    57     7    50 1   
    58     8    51 1   
    59     8    52 1   
    60     9    53 1   
    61    11    54 1   
    62    13    55 1   
    63    13    56 1   
    64    15    57 1   
    65    16    58 1   
    66    17    85 1   
    67    17    88 1   
    68    18    59 1   
    69    18    60 1   
    70    19    61 1   
    71    19    62 1   
    72    20    63 1   
    73    20    64 1   
    74    20    65 1   
    75    21    66 1   
    76    21    67 1   
    77    21    68 1   
    78    23    69 1   
    79    23    70 1   
    80    23    71 1   
    81    24    72 1   
    82    24    73 1   
    83    27    74 1   
    84    30    75 1   
    85    30    76 1   
    86    32    77 1   
    87    33    78 1   
    88    34    79 1   
    89    38    80 1   
    90    39    81 1   
    91    39    82 1   
    92    41    83 1   
    93    41    84 1   
    94    87    41 1   
@<TRIPOS>SUBSTRUCTURE
     1 19V         1 TEMP              0 ****  ****    0 ROOT
