@<TRIPOS>MOLECULE
19V
   89    95     1     0     0
SMALL
bcc


@<TRIPOS>ATOM
      1 C1           0.3140     0.4480    -1.0630 c3         1 19V       0.128500
      2 C2           1.8240     0.7610    -1.1530 c3         1 19V      -0.074200
      3 C3           2.1970     1.5830     0.0750 c3         1 19V      -0.072400
      4 C4           1.9300     0.7640     1.3520 c3         1 19V      -0.116000
      5 C5           0.4390     0.4010     1.4140 c3         1 19V      -0.072400
      6 C6           0.0670    -0.4280     0.1860 c3         1 19V      -0.074200
      7 C8           0.9110    -1.6950     0.1530 c3         1 19V      -0.095400
      8 C9           2.7710    -0.5150     1.3140 c3         1 19V      -0.086400
      9 C10          2.3890    -1.3300     0.0790 c3         1 19V      -0.062700
     10 C11          2.2670     1.6530     2.5330 c          1 19V       0.544100
     11 C15         -0.6920    -2.3380    -4.4100 ca         1 19V      -0.124000
     12 C16         -1.4770    -1.1780    -4.6010 ca         1 19V      -0.190400
     13 C18         -3.3760     0.8930    -5.1360 c3         1 19V       0.162800
     14 C20         -2.0670     1.4880    -7.0900 ca         1 19V       0.468200
     15 C21         -2.7600     1.6290    -8.3160 ca         1 19V      -0.141300
     16 C24         -0.6900     3.2800    -7.5890 ca         1 19V       0.332200
     17 C25         -1.4960     4.6470   -11.0020 c3         1 19V       0.198300
     18 C26         -1.1470     5.9130   -11.8110 c3         1 19V       0.161800
     19 C28          0.2480     5.3040    -9.3650 c3         1 19V       0.198300
     20 C31          2.1730     7.6240   -12.4740 c3         1 19V      -0.102767
     21 C32          0.2440     7.2180   -13.9640 c3         1 19V      -0.102767
     22 N7           0.2310     6.3380   -11.6310 n3         1 19V      -0.724600
     23 C30          0.0320     8.8200   -12.0870 c3         1 19V      -0.102767
     24 C27          0.4990     6.5610   -10.2210 c3         1 19V       0.161800
     25 N6          -1.0070     4.6290    -9.6350 nh         1 19V      -0.630000
     26 C23         -1.3410     3.5370    -8.8490 ca         1 19V       0.106300
     27 C22         -2.3910     2.6440    -9.1890 ca         1 19V      -0.181000
     28 N5          -1.0340     2.3140    -6.7420 nb         1 19V      -0.672000
     29 N3          -2.4690     0.4430    -6.1800 nh         1 19V      -0.608700
     30 C19         -3.5920    -0.1490    -4.0250 c3         1 19V       0.049000
     31 C17         -1.5230    -0.5420    -5.8780 ca         1 19V       0.211600
     32 C14         -0.6410    -1.0270    -6.8860 ca         1 19V      -0.143000
     33 C13          0.1590    -2.1280    -6.6580 ca         1 19V      -0.063000
     34 C12          0.1240    -2.8000    -5.4250 ca         1 19V      -0.153000
     35 N4          -2.3280    -0.7150    -3.5440 n          1 19V      -0.241000
     36 C33         -1.7490    -0.0800    -2.4530 c          1 19V       0.617100
     37 O2          -2.3210     0.4380    -1.4890 o          1 19V      -0.505100
     38 N1          -0.2060    -0.1700    -2.3210 ny         1 19V      -0.663800
     39 C7           2.6540    -0.5160    -1.1810 c3         1 19V      -0.095400
     40 O1           2.3310     2.8690     2.5680 o          1 19V      -0.372100
     41 N2           2.5410     0.9740     3.8600 nz         1 19V      -0.761400
     42 C29          0.6400     7.4680   -12.4980 c3         1 19V       0.195200
     43 H1          -0.2560     1.4210    -0.9340 hx         1 19V       0.125700
     44 H2           2.0420     1.3780    -2.0700 hc         1 19V       0.104700
     45 H3           3.2840     1.8570     0.0200 hc         1 19V       0.082450
     46 H4           1.6040     2.5350     0.1060 hc         1 19V       0.082450
     47 H5           0.2240    -0.2030     2.3330 hc         1 19V       0.082450
     48 H6          -0.1840     1.3330     1.4500 hc         1 19V       0.082450
     49 H7          -1.0280    -0.6900     0.2530 hc         1 19V       0.104700
     50 H8           0.6340    -2.3450    -0.7160 hc         1 19V       0.072200
     51 H9           0.7110    -2.2980     1.0780 hc         1 19V       0.072200
     52 H10          3.8620    -0.2600     1.2720 hc         1 19V       0.061200
     53 H11          2.5820    -1.1460     2.2210 hc         1 19V       0.061200
     54 H12          3.0090    -2.2680     0.0570 hc         1 19V       0.102700
     55 H13         -0.7650    -2.9050    -3.4680 ha         1 19V       0.132000
     56 H14         -4.3720     1.0900    -5.6290 h1         1 19V       0.079700
     57 H15         -3.0200     1.8600    -4.6770 h1         1 19V       0.079700
     58 H16         -3.5800     0.9440    -8.5810 ha         1 19V       0.162000
     59 H17          0.1610     3.9000    -7.2520 h4         1 19V       0.029100
     60 H20         -1.8810     6.7270   -11.5380 h1         1 19V       0.051950
     61 H21         -1.3090     5.6450   -12.8930 h1         1 19V       0.051950
     62 H22          1.1090     4.5880    -9.5060 h1         1 19V       0.048700
     63 H23          0.2410     5.6460    -8.2900 h1         1 19V       0.048700
     64 H24          2.5280     7.9920   -11.4820 hc         1 19V       0.043922
     65 H25          2.6740     6.6550   -12.7050 hc         1 19V       0.043922
     66 H26          2.4710     8.3750   -13.2450 hc         1 19V       0.043922
     67 H27         -0.8600     7.3170   -14.1020 hc         1 19V       0.043922
     68 H28          0.7400     7.9830   -14.6100 hc         1 19V       0.043922
     69 H29          0.5700     6.2060   -14.3010 hc         1 19V       0.043922
     70 H31         -1.0820     8.7660   -12.0560 hc         1 19V       0.043922
     71 H32          0.3270     9.5970   -12.8320 hc         1 19V       0.043922
     72 H33          0.4060     9.1380   -11.0840 hc         1 19V       0.043922
     73 H34          1.5850     6.8290   -10.0940 h1         1 19V       0.051950
     74 H35         -0.1210     7.4060    -9.7990 h1         1 19V       0.051950
     75 H36         -2.9310     2.7350   -10.1440 ha         1 19V       0.161000
     76 H37         -4.1540     0.3240    -3.1720 h1         1 19V       0.112700
     77 H38         -4.1840    -1.0280    -4.4140 h1         1 19V       0.112700
     78 H39         -0.6240    -0.5230    -7.8690 ha         1 19V       0.174000
     79 H40          0.8200    -2.5000    -7.4590 ha         1 19V       0.165000
     80 H41          0.7290    -3.7090    -5.2820 ha         1 19V       0.158000
     81 H42          0.0780    -1.1550    -2.3700 hn         1 19V       0.462800
     82 H43          3.7430    -0.2500    -1.2420 hc         1 19V       0.072200
     83 H44          2.4160    -1.1280    -2.0880 hc         1 19V       0.072200
     84 H45          1.7500     0.3760     4.1190 hn         1 19V       0.475467
     85 H46          2.6860     1.6790     4.5970 hn         1 19V       0.475467
     86 H18         -2.6230     4.5890   -10.9700 h1         1 19V       0.048700
     87 H231         3.3840     0.3940     3.7850 hn         1 19V       0.475467
     88 H121         0.2000     0.3160    -3.1310 hn         1 19V       0.462800
     89 H19         -1.1070     3.7450   -11.5570 h1         1 19V       0.048700
@<TRIPOS>BOND
     1     1     2 1   
     2     1     6 1   
     3     1    38 1   
     4     1    43 1   
     5     2     3 1   
     6     2    39 1   
     7     2    44 1   
     8     3     4 1   
     9     3    45 1   
    10     3    46 1   
    11     4     5 1   
    12     4     8 1   
    13     4    10 1   
    14     5     6 1   
    15     5    47 1   
    16     5    48 1   
    17     6     7 1   
    18     6    49 1   
    19     7     9 1   
    20     7    50 1   
    21     7    51 1   
    22     8     9 1   
    23     8    52 1   
    24     8    53 1   
    25     9    39 1   
    26     9    54 1   
    27    10    40 2   
    28    10    41 1   
    29    11    12 ar  
    30    11    34 ar  
    31    11    55 1   
    32    12    31 ar  
    33    12    35 1   
    34    13    29 1   
    35    13    30 1   
    36    13    56 1   
    37    13    57 1   
    38    14    15 ar  
    39    14    28 ar  
    40    14    29 1   
    41    15    27 ar  
    42    15    58 1   
    43    16    26 ar  
    44    16    28 ar  
    45    16    59 1   
    46    17    18 1   
    47    17    25 1   
    48    17    86 1   
    49    17    89 1   
    50    18    22 1   
    51    18    60 1   
    52    18    61 1   
    53    19    24 1   
    54    19    25 1   
    55    19    62 1   
    56    19    63 1   
    57    20    42 1   
    58    20    64 1   
    59    20    65 1   
    60    20    66 1   
    61    21    42 1   
    62    21    67 1   
    63    21    68 1   
    64    21    69 1   
    65    22    24 1   
    66    22    42 1   
    67    23    42 1   
    68    23    70 1   
    69    23    71 1   
    70    23    72 1   
    71    24    73 1   
    72    24    74 1   
    73    25    26 1   
    74    26    27 ar  
    75    27    75 1   
    76    29    31 1   
    77    30    35 1   
    78    30    76 1   
    79    30    77 1   
    80    31    32 ar  
    81    32    33 ar  
    82    32    78 1   
    83    33    34 ar  
    84    33    79 1   
    85    34    80 1   
    86    35    36 1   
    87    36    37 2   
    88    36    38 1   
    89    38    81 1   
    90    38    88 1   
    91    39    82 1   
    92    39    83 1   
    93    41    84 1   
    94    41    85 1   
    95    41    87 1   
@<TRIPOS>SUBSTRUCTURE
     1 19V         1 TEMP              0 ****  ****    0 ROOT
