@<TRIPOS>MOLECULE
19X
   49    53     1     0     0
SMALL
bcc


@<TRIPOS>ATOM
      1 O29          4.4610    -2.4680     1.0400 o          1 19X      -0.567100
      2 C28          4.2120    -1.2840     0.7920 c          1 19X       0.713100
      3 C22          4.1570    -0.1720     1.8120 ca         1 19X      -0.210600
      4 C21          4.1860    -0.1700     3.1850 ca         1 19X      -0.083000
      5 N27          4.0440    -0.6860    -0.5310 nc         1 19X      -0.591100
      6 C26          3.9790     0.6130    -0.3700 cd         1 19X       0.547800
      7 C23          4.0740     1.0370     1.0580 ca         1 19X      -0.216900
      8 C24          4.0890     2.2550     1.7010 ca         1 19X      -0.037000
      9 C25          4.2030     2.2590     3.1010 ca         1 19X      -0.106000
     10 C20          4.2520     1.0730     3.8500 ca         1 19X      -0.025100
     11 S19          4.3400     1.3580     5.5050 ss         1 19X      -0.047200
     12 C10          4.6020    -0.1180     6.3910 ca         1 19X       0.713300
     13 N11          4.0540    -0.0440     7.6340 nb         1 19X      -0.653000
     14 C2           4.3530    -1.1000     8.4420 ca         1 19X       0.461800
     15 N9           5.3560    -1.1400     5.8680 nb         1 19X      -0.809000
     16 C8           5.6420    -2.2010     6.6740 ca         1 19X       0.655200
     17 N13          6.4610    -3.2980     6.2410 nh         1 19X      -0.698300
     18 C17          7.4860    -3.0270     5.2450 c3         1 19X       0.151800
     19 C16          7.0650    -3.6990     3.9010 c3         1 19X       0.085500
     20 N18          6.5280    -2.7070     2.9210 nz         1 19X      -0.840600
     21 C15          6.0150    -4.7480     4.3110 c3         1 19X      -0.126400
     22 C14          5.7040    -4.4750     5.7950 c3         1 19X       0.157800
     23 C3           5.1630    -2.2410     8.0080 ca         1 19X      -0.267400
     24 C4           5.2510    -3.1200     9.1400 cc         1 19X      -0.042800
     25 Cl1          6.0740    -4.5670     9.2190 cl         1 19X      -0.028400
     26 C5           4.5260    -2.5340    10.1950 cd         1 19X      -0.004300
     27 N1           3.9820    -1.3150     9.7690 na         1 19X      -0.256100
     28 C6           4.3470    -3.0920    11.5560 c3         1 19X      -0.039200
     29 C7           3.5140    -2.2450    12.4830 c3         1 19X      -0.107100
     30 H1           4.0990    -1.1090     3.7500 ha         1 19X       0.147000
     31 H2           3.8570     1.3150    -1.2080 h4         1 19X       0.073800
     32 H3           4.0200     3.2060     1.1490 ha         1 19X       0.166000
     33 H4           4.2450     3.2310     3.6270 ha         1 19X       0.167000
     34 H5           7.7290    -1.9370     5.1400 h1         1 19X       0.098200
     35 H6           8.4180    -3.5570     5.5990 h1         1 19X       0.098200
     36 H7           7.9560    -4.1860     3.4110 hx         1 19X       0.114700
     37 H8           5.7600    -2.1650     3.3410 hn         1 19X       0.466467
     38 H9           7.2670    -2.0610     2.6390 hn         1 19X       0.466467
     39 H11          6.4520    -5.7720     4.1910 hc         1 19X       0.090700
     40 H12          5.0830    -4.7060     3.6950 hc         1 19X       0.090700
     41 H13          4.6000    -4.3520     5.9570 h1         1 19X       0.089200
     42 H14          6.0540    -5.3400     6.4270 h1         1 19X       0.089200
     43 H15          3.4310    -0.7070    10.3230 hn         1 19X       0.332700
     44 H16          5.3710    -3.2440    12.0010 hc         1 19X       0.082200
     45 H17          3.8790    -4.1110    11.4510 hc         1 19X       0.082200
     46 H18          2.4790    -2.1070    12.0870 hc         1 19X       0.049700
     47 H19          3.4390    -2.7500    13.4780 hc         1 19X       0.049700
     48 H20          3.9770    -1.2400    12.6410 hc         1 19X       0.049700
     49 H183         6.1570    -3.1920     2.0910 hn         1 19X       0.466467
@<TRIPOS>BOND
     1     1     2 2   
     2     2     3 1   
     3     2     5 1   
     4     3     4 ar  
     5     3     7 ar  
     6     4    10 ar  
     7     4    30 1   
     8     5     6 2   
     9     6     7 1   
    10     6    31 1   
    11     7     8 ar  
    12     8     9 ar  
    13     8    32 1   
    14     9    10 ar  
    15     9    33 1   
    16    10    11 1   
    17    11    12 1   
    18    12    13 ar  
    19    12    15 ar  
    20    13    14 ar  
    21    14    23 ar  
    22    14    27 1   
    23    15    16 ar  
    24    16    17 1   
    25    16    23 ar  
    26    17    18 1   
    27    17    22 1   
    28    18    19 1   
    29    18    34 1   
    30    18    35 1   
    31    19    20 1   
    32    19    21 1   
    33    19    36 1   
    34    20    37 1   
    35    20    38 1   
    36    20    49 1   
    37    21    22 1   
    38    21    39 1   
    39    21    40 1   
    40    22    41 1   
    41    22    42 1   
    42    23    24 1   
    43    24    25 1   
    44    24    26 2   
    45    26    27 1   
    46    26    28 1   
    47    27    43 1   
    48    28    29 1   
    49    28    44 1   
    50    28    45 1   
    51    29    46 1   
    52    29    47 1   
    53    29    48 1   
@<TRIPOS>SUBSTRUCTURE
     1 19X         1 TEMP              0 ****  ****    0 ROOT
