@<TRIPOS>MOLECULE
19X
   49    53     1     0     0
SMALL
bcc


@<TRIPOS>ATOM
      1 O29          0.0000     0.0000     0.0000 o          1 19X      -0.481100
      2 C28          1.2160     0.0000     0.0000 c          1 19X       0.719100
      3 C22          2.0900     0.0000     1.2030 ca         1 19X      -0.223600
      4 C21          1.8720     0.0020     2.5580 ca         1 19X       0.043000
      5 N27          2.0080    -0.0070    -1.0870 nc         1 19X      -0.544100
      6 C26          3.2760    -0.0050    -0.7660 cd         1 19X       0.558800
      7 C23          3.4110    -0.0000     0.6960 ca         1 19X      -0.186900
      8 C24          4.4890    -0.0000     1.5740 ca         1 19X      -0.056000
      9 C25          4.2640     0.0000     2.9400 ca         1 19X      -0.013000
     10 C20          2.9680     0.0020     3.4380 ca         1 19X       0.017900
     11 S19          2.6970     0.0030     5.1790 ss         1 19X      -0.343200
     12 C10          2.5040    -1.7250     5.4600 ca         1 19X       0.752300
     13 N11          2.6960    -2.5590     4.4520 nb         1 19X      -0.604000
     14 C2           2.5610    -3.8730     4.6220 ca         1 19X       0.273800
     15 N9           2.1760    -2.1420     6.6780 nb         1 19X      -0.684000
     16 C8           2.0180    -3.4350     6.9390 ca         1 19X       0.544200
     17 N13          1.6770    -3.8640     8.2080 nh         1 19X      -0.480300
     18 C17          0.3300    -3.3810     8.5860 c3         1 19X       0.152800
     19 C16          0.3570    -3.1080    10.1010 c3         1 19X      -0.096500
     20 N18          0.0470    -1.6980    10.3700 nz         1 19X       0.074400
     21 C15          1.8010    -3.4340    10.5450 c3         1 19X      -0.022400
     22 C14          2.6060    -3.3100     9.2260 c3         1 19X       0.138800
     23 C3           2.2090    -4.3550     5.8950 ca         1 19X      -0.307400
     24 C4           2.1360    -5.8110     5.7760 cc         1 19X      -0.075800
     25 Cl1          1.7400    -6.9350     7.0390 cl         1 19X       0.035600
     26 C5           2.4340    -6.1120     4.5010 cd         1 19X      -0.220300
     27 N1           2.6900    -4.9590     3.8000 na         1 19X       0.301900
     28 C6           2.4800    -7.5040     3.9260 c3         1 19X       0.054800
     29 C7           1.0730    -7.9250     3.4970 c3         1 19X       0.005900
     30 H1           0.8610     0.0040     2.9470 ha         1 19X       0.123000
     31 H2           3.9900    -0.5470    -1.3740 h4         1 19X       0.007800
     32 H3           5.5020    -0.0020     1.1900 ha         1 19X       0.117000
     33 H4           5.1040     0.0000     3.6240 ha         1 19X       0.122000
     34 H5          -0.4090    -4.1400     8.3620 h1         1 19X       0.045700
     35 H6           0.1040    -2.4670     8.0510 h1         1 19X       0.045700
     36 H7          -0.3450    -3.7570    10.6100 hx         1 19X       0.098700
     37 H8          -0.1040    -1.5710    11.3510 hn         1 19X       0.227467
     38 H9           0.8120    -1.1250    10.0740 hn         1 19X       0.227467
     39 H11          1.8620    -4.4430    10.9360 hc         1 19X       0.050700
     40 H12          2.1490    -2.7120    11.2730 hc         1 19X       0.050700
     41 H13          2.8290    -2.2720     9.0130 h1         1 19X       0.047700
     42 H14          3.5120    -3.9010     9.2760 h1         1 19X       0.047700
     43 H15          2.9350    -4.9180     2.8300 hn         1 19X       0.134700
     44 H16          3.1390    -7.5190     3.0670 hc         1 19X       0.030200
     45 H17          2.8490    -8.1930     4.6770 hc         1 19X       0.030200
     46 H18          1.1410    -8.7310     2.7760 hc         1 19X       0.010700
     47 H19          0.5650    -7.0800     3.0460 hc         1 19X       0.010700
     48 H20          0.5160    -8.2610     4.3630 hc         1 19X       0.010700
     49 H183        -0.7870    -1.4400     9.8810 hn         1 19X       0.227467
@<TRIPOS>BOND
     1     1     2 2   
     2     2     3 1   
     3     2     5 1   
     4     3     4 ar  
     5     3     7 ar  
     6     4    10 ar  
     7     4    30 1   
     8     5     6 2   
     9     6     7 1   
    10     6    31 1   
    11     7     8 ar  
    12     8     9 ar  
    13     8    32 1   
    14     9    10 ar  
    15     9    33 1   
    16    10    11 1   
    17    11    12 1   
    18    12    13 ar  
    19    12    15 ar  
    20    13    14 ar  
    21    14    23 ar  
    22    14    27 1   
    23    15    16 ar  
    24    16    17 1   
    25    16    23 ar  
    26    17    18 1   
    27    17    22 1   
    28    18    19 1   
    29    18    34 1   
    30    18    35 1   
    31    19    20 1   
    32    19    21 1   
    33    19    36 1   
    34    20    37 1   
    35    20    38 1   
    36    20    49 1   
    37    21    22 1   
    38    21    39 1   
    39    21    40 1   
    40    22    41 1   
    41    22    42 1   
    42    23    24 1   
    43    24    25 1   
    44    24    26 2   
    45    26    27 1   
    46    26    28 1   
    47    27    43 1   
    48    28    29 1   
    49    28    44 1   
    50    28    45 1   
    51    29    46 1   
    52    29    47 1   
    53    29    48 1   
@<TRIPOS>SUBSTRUCTURE
     1 19X         1 TEMP              0 ****  ****    0 ROOT
