@<TRIPOS>MOLECULE
19Y
   36    38     1     0     0
SMALL
bcc


@<TRIPOS>ATOM
      1 O20         -0.0440    -0.0010     0.1190 o          1 19Y      -0.559100
      2 C19          1.1910    -0.0740     0.1130 c          1 19Y       0.602100
      3 C5           2.0130    -0.0880     1.3060 cc         1 19Y      -0.217400
      4 C1           1.5970     0.0020     2.6490 cd         1 19Y       0.028700
      5 C21          0.2040     0.0960     3.1470 c3         1 19Y      -0.050200
      6 C22          0.0590     0.8880     4.4210 c3         1 19Y      -0.100100
      7 C4           3.4490    -0.1860     1.3170 ca         1 19Y      -0.309400
      8 C6           4.5020    -0.3020     0.3740 ca         1 19Y       0.711600
      9 O17          4.1280    -0.3400    -0.9480 os         1 19Y      -0.442100
     10 C18          5.1630    -0.4190    -1.9310 c3         1 19Y       0.123700
     11 N7           5.7980    -0.3730     0.7550 nb         1 19Y      -0.796000
     12 C8           6.0640    -0.3200     2.1050 ca         1 19Y       0.750300
     13 N9           5.1680    -0.2120     3.1230 nb         1 19Y      -0.707000
     14 C3           3.8660    -0.1470     2.7090 ca         1 19Y       0.468800
     15 N2           2.7110    -0.0380     3.4940 na         1 19Y      -0.274100
     16 S10          7.7150    -0.3820     2.6280 ss         1 19Y      -0.113200
     17 C11          8.6740    -0.5400     1.2420 ca         1 19Y      -0.178400
     18 C16          8.6010    -1.6050     0.3370 ca         1 19Y      -0.028000
     19 C15          9.5360    -1.6890    -0.6950 ca         1 19Y      -0.262300
     20 C14         10.5270    -0.6960    -0.7850 ca         1 19Y       0.418200
     21 N13         10.6180     0.3400     0.0730 nb         1 19Y      -0.671000
     22 C12          9.7010     0.4140     1.0530 ca         1 19Y       0.443200
     23 H1           1.7650    -0.1350    -0.8420 h4         1 19Y       0.021200
     24 H2          -0.4190     0.5600     2.3290 hc         1 19Y       0.087700
     25 H3          -0.1880    -0.9490     3.3000 hc         1 19Y       0.087700
     26 H4           0.5230     0.3570     5.2870 hc         1 19Y       0.041367
     27 H5          -1.0250     1.0350     4.6480 hc         1 19Y       0.041367
     28 H6           0.5360     1.8930     4.3240 hc         1 19Y       0.041367
     29 H7           4.5910    -0.4180    -2.8940 h1         1 19Y       0.054367
     30 H8           5.7430    -1.3650    -1.8120 h1         1 19Y       0.054367
     31 H9           5.8370     0.4680    -1.8640 h1         1 19Y       0.054367
     32 H10          2.6920     0.0370     4.4790 hn         1 19Y       0.317700
     33 H11          7.8110    -2.3660     0.4360 ha         1 19Y       0.151000
     34 H12          9.5050    -2.5130    -1.4200 ha         1 19Y       0.147000
     35 H13         11.2900    -0.7240    -1.5850 h4         1 19Y       0.025100
     36 H14          9.7910     1.2810     1.7350 h4         1 19Y       0.035100
@<TRIPOS>BOND
     1     1     2 2   
     2     2     3 1   
     3     2    23 1   
     4     3     4 2   
     5     3     7 1   
     6     4     5 1   
     7     4    15 1   
     8     5     6 1   
     9     5    24 1   
    10     5    25 1   
    11     6    26 1   
    12     6    27 1   
    13     6    28 1   
    14     7     8 ar  
    15     7    14 ar  
    16     8     9 1   
    17     8    11 ar  
    18     9    10 1   
    19    10    29 1   
    20    10    30 1   
    21    10    31 1   
    22    11    12 ar  
    23    12    13 ar  
    24    12    16 1   
    25    13    14 ar  
    26    14    15 1   
    27    15    32 1   
    28    16    17 1   
    29    17    18 ar  
    30    17    22 ar  
    31    18    19 ar  
    32    18    33 1   
    33    19    20 ar  
    34    19    34 1   
    35    20    21 ar  
    36    20    35 1   
    37    21    22 ar  
    38    22    36 1   
@<TRIPOS>SUBSTRUCTURE
     1 19Y         1 TEMP              0 ****  ****    0 ROOT
