@<TRIPOS>MOLECULE
molecule
   36    38     1     0     0
SMALL
bcc


@<TRIPOS>ATOM
      1 O20          0.0000     0.0000     0.0000 o          1 19Y      -0.512100
      2 C19          1.2140     0.0000     0.0000 c          1 19Y       0.593100
      3 C5           1.9230     0.0000     1.2280 cc         1 19Y      -0.223400
      4 C1           3.2820     0.0060     1.3920 cd         1 19Y      -0.007300
      5 C21          4.2920     0.0130     0.2740 c3         1 19Y      -0.029200
      6 C22          4.5340     1.4530    -0.1850 c3         1 19Y      -0.091100
      7 C4           1.3440     0.0010     2.5840 ca         1 19Y      -0.327400
      8 C6           0.0470     0.0020     3.1050 ca         1 19Y       0.750600
      9 O17         -1.0290     0.0000     2.2830 os         1 19Y      -0.389100
     10 C18         -2.3180     0.0010     2.9010 c3         1 19Y       0.129700
     11 N7          -0.1060     0.0020     4.4230 nb         1 19Y      -0.847000
     12 C8           0.9480     0.0030     5.2320 ca         1 19Y       0.829300
     13 N9           2.1900     0.0030     4.7780 nb         1 19Y      -0.771000
     14 C3           2.4340     0.0020     3.4690 ca         1 19Y       0.514800
     15 N2           3.5800     0.0050     2.7150 na         1 19Y      -0.253100
     16 S10          0.6800     0.0040     6.9740 ss         1 19Y      -0.193200
     17 C11         -1.0740     0.1590     7.0130 ca         1 19Y      -0.140400
     18 C16         -1.8820    -0.9710     7.1170 ca         1 19Y      -0.032000
     19 C15         -3.2560    -0.7980     7.1460 ca         1 19Y      -0.272300
     20 C14         -3.7770     0.4800     7.0710 ca         1 19Y       0.444200
     21 N13         -2.9860     1.5310     6.9730 nb         1 19Y      -0.700000
     22 C12         -1.6740     1.4110     6.9490 ca         1 19Y       0.479200
     23 H1           1.7550     0.0050    -0.9380 h4         1 19Y      -0.012800
     24 H2           3.9160    -0.5720    -0.5560 hc         1 19Y       0.060700
     25 H3           5.2230    -0.4150     0.6260 hc         1 19Y       0.060700
     26 H4           3.6390     1.8350    -0.6610 hc         1 19Y       0.044367
     27 H5           5.3550     1.4730    -0.8910 hc         1 19Y       0.044367
     28 H6           4.7780     2.0690     0.6720 hc         1 19Y       0.044367
     29 H7          -2.4120    -0.8690     3.5400 h1         1 19Y       0.048700
     30 H8          -2.4330     0.8990     3.4950 h1         1 19Y       0.048700
     31 H9          -3.0850    -0.0270     2.1370 h1         1 19Y       0.048700
     32 H10          4.5080     0.0090     3.0890 hn         1 19Y       0.310700
     33 H11         -1.4460    -1.9610     7.1740 ha         1 19Y       0.149000
     34 H12         -3.9150    -1.6550     7.2260 ha         1 19Y       0.142000
     35 H13         -4.8510     0.6210     7.0900 h4         1 19Y       0.024100
     36 H14         -1.0560     2.2970     6.8680 h4         1 19Y       0.035100
@<TRIPOS>BOND
     1     6     5 1
     2     1     2 2
     3     5     4 1
     4     2     3 1
     5     4     3 2
     6     4    15 1
     7     3     7 1
     8    15    14 1
     9     7    14 ar
    10     7     8 ar
    11     9     8 1
    12     9    10 1
    13    14    13 ar
    14     8    11 ar
    15    13    12 ar
    16    11    12 ar
    17    12    16 1
    18    22    21 ar
    19    22    17 ar
    20    16    17 1
    21    21    20 ar
    22    17    18 ar
    23    20    19 ar
    24    18    19 ar
    25     2    23 1
    26     5    24 1
    27     5    25 1
    28     6    26 1
    29     6    27 1
    30     6    28 1
    31    10    29 1
    32    10    30 1
    33    10    31 1
    34    15    32 1
    35    18    33 1
    36    19    34 1
    37    20    35 1
    38    22    36 1
@<TRIPOS>SUBSTRUCTURE
     1 19Y         1 TEMP              0 ****  ****    0 ROOT
