@<TRIPOS>MOLECULE
19Y
   36    38     1     0     0
SMALL
bcc


@<TRIPOS>ATOM
      1 O20        -0.1160   -0.6190   -0.4370 o         1 19Y     -0.512100
      2 C19         1.0680   -0.3130   -0.2890 c         1 19Y      0.595100
      3 C5          1.6990    0.0370    0.9690 cc        1 19Y     -0.199400
      4 C1          3.0700    0.3390    1.1090 cd        1 19Y     -0.013300
      5 C21         4.0830    0.3530    0.0260 c3        1 19Y     -0.036200
      6 C22         5.4780    0.7160    0.4660 c3        1 19Y     -0.104100
      7 C4          1.1100    0.1490    2.2770 ca        1 19Y     -0.295400
      8 C6         -0.1690    0.0010    2.8810 ca        1 19Y      0.722600
      9 O17        -1.1970   -0.3480    2.0470 os        1 19Y     -0.402100
     10 C18        -2.5040   -0.4760    2.6120 c3        1 19Y      0.120700
     11 N7         -0.3580    0.1920    4.2070 nb        1 19Y     -0.806000
     12 C8          0.7370    0.5480    4.9620 ca        1 19Y      0.755300
     13 N9          2.0150    0.7280    4.5340 nb        1 19Y     -0.715000
     14 C3          2.1790    0.5240    3.1900 ca        1 19Y      0.462800
     15 N2          3.3590    0.6300    2.4440 na        1 19Y     -0.266100
     16 S10         0.5210    0.8220    6.6600 ss        1 19Y     -0.117200
     17 C11        -1.1090    0.5410    7.0140 ca        1 19Y     -0.176400
     18 C16        -1.7810   -0.6680    6.7980 ca        1 19Y     -0.028000
     19 C15        -3.0920   -0.8120    7.2560 ca        1 19Y     -0.261300
     20 C14        -3.6910    0.2690    7.9250 ca        1 19Y      0.417200
     21 N13        -3.0660    1.4440    8.1450 nb        1 19Y     -0.672000
     22 C12        -1.8100    1.5710    7.6850 ca        1 19Y      0.441200
     23 H1          1.7630   -0.2880   -1.1640 h4        1 19Y     -0.017800
     24 H2          3.7380    1.0810   -0.7600 hc        1 19Y      0.069200
     25 H3          4.0960   -0.6680   -0.4500 hc        1 19Y      0.069200
     26 H4          5.5090    1.7410    0.9080 hc        1 19Y      0.044367
     27 H5          6.1630    0.7010   -0.4170 hc        1 19Y      0.044367
     28 H6          5.8680   -0.0120    1.2180 hc        1 19Y      0.044367
     29 H7         -3.1280   -0.7480    1.7220 h1        1 19Y      0.053367
     30 H8         -2.8380    0.4920    3.0550 h1        1 19Y      0.053367
     31 H9         -2.5230   -1.2880    3.3770 h1        1 19Y      0.053367
     32 H10         4.2460    0.8740    2.8040 hn        1 19Y      0.317700
     33 H11        -1.2830   -1.4960    6.2700 ha        1 19Y      0.151000
     34 H12        -3.6440   -1.7470    7.1010 ha        1 19Y      0.147000
     35 H13        -4.7260    0.1990    8.3060 h4        1 19Y      0.024100
     36 H14        -1.3250    2.5490    7.8660 h4        1 19Y      0.034100
@<TRIPOS>BOND
     1    1    2 2   
     2    2    3 1   
     3    2   23 1   
     4    3    4 2   
     5    3    7 1   
     6    4    5 1   
     7    4   15 1   
     8    5    6 1   
     9    5   24 1   
    10    5   25 1   
    11    6   26 1   
    12    6   27 1   
    13    6   28 1   
    14    7    8 ar  
    15    7   14 ar  
    16    8    9 1   
    17    8   11 ar  
    18    9   10 1   
    19   10   29 1   
    20   10   30 1   
    21   10   31 1   
    22   11   12 ar  
    23   12   13 ar  
    24   12   16 1   
    25   13   14 ar  
    26   14   15 1   
    27   15   32 1   
    28   16   17 1   
    29   17   18 ar  
    30   17   22 ar  
    31   18   19 ar  
    32   18   33 1   
    33   19   20 ar  
    34   19   34 1   
    35   20   21 ar  
    36   20   35 1   
    37   21   22 ar  
    38   22   36 1   
@<TRIPOS>SUBSTRUCTURE
     1 19Y         1 TEMP              0 ****  ****    0 ROOT
