@<TRIPOS>MOLECULE
19Z
   35    36     1     0     0
SMALL
bcc


@<TRIPOS>ATOM
      1 N01         -0.1340     0.2310    -0.0440 nu         1 19Z      -0.700600
      2 N02          3.2610     0.2650     2.7940 nz         1 19Z      -0.757400
      3 N03          5.2220     0.0260    -1.9210 no         1 19Z       0.325200
      4 C04          3.5850     0.1400    -0.0570 ca         1 19Z      -0.001000
      5 C05          2.2670     0.1660     0.4620 ca         1 19Z      -0.324600
      6 C06          1.1490     0.1200    -0.4540 ca         1 19Z       0.333600
      7 C07          1.4560    -0.0120    -1.8600 ca         1 19Z      -0.209000
      8 C08          2.7360    -0.0440    -2.3300 ca         1 19Z       0.023000
      9 C09          3.8230     0.0450    -1.4120 ca         1 19Z      -0.223200
     10 C11         -1.2880     0.1990    -0.9260 c3         1 19Z       0.250100
     11 C12         -1.6550    -1.1590    -1.4370 ca         1 19Z      -0.193300
     12 C13         -1.9910    -2.1830    -0.5410 ca         1 19Z      -0.075000
     13 C14         -2.3750    -3.4330    -1.0050 ca         1 19Z      -0.181500
     14 C15         -2.4330    -3.6590    -2.3940 ca         1 19Z       0.160100
     15 C16         -2.1090    -2.6370    -3.3010 ca         1 19Z      -0.181500
     16 C17         -1.7200    -1.3930    -2.8140 ca         1 19Z      -0.075000
     17 O18          0.9980     0.2710     2.5330 o          1 19Z      -0.490100
     18 O19         -2.8150    -4.9130    -2.7880 oh         1 19Z      -0.479100
     19 O20          6.1130     0.0930    -1.1160 o          1 19Z      -0.184000
     20 O21          5.4050    -0.0560    -3.1000 o          1 19Z      -0.184000
     21 C10          2.0400     0.2350     1.8790 c          1 19Z       0.585700
     22 HN01        -0.3440     0.2190     0.9340 hn         1 19Z       0.465800
     23 HN02         3.8310     1.0910     2.5940 hn         1 19Z       0.468133
     24 HN0A         2.9460     0.3010     3.7720 hn         1 19Z       0.468133
     25 H04          4.4650     0.1970     0.6080 ha         1 19Z       0.148000
     26 H07          0.6190    -0.1140    -2.5770 ha         1 19Z       0.181000
     27 H08          2.9470    -0.1440    -3.4130 ha         1 19Z       0.198000
     28 H11         -1.1060     0.9060    -1.7870 h1         1 19Z       0.082700
     29 H11A        -2.1540     0.6080    -0.3240 h1         1 19Z       0.082700
     30 H13         -1.9620    -1.9960     0.5430 ha         1 19Z       0.133500
     31 H14         -2.6440    -4.2450    -0.3140 ha         1 19Z       0.158500
     32 H16         -2.1690    -2.8170    -4.3840 ha         1 19Z       0.158500
     33 H17         -1.4780    -0.5880    -3.5270 ha         1 19Z       0.133500
     34 HO19        -2.8580    -4.9330    -3.7570 ho         1 19Z       0.434000
     35 H023         3.8280    -0.5760     2.6530 hn         1 19Z       0.468133
@<TRIPOS>BOND
     1     1     6 1   
     2     1    10 1   
     3     1    22 1   
     4     2    21 1   
     5     2    23 1   
     6     2    24 1   
     7     2    35 1   
     8     3     9 1   
     9     3    19 1   
    10     3    20 1   
    11     4     5 ar  
    12     4     9 ar  
    13     4    25 1   
    14     5     6 ar  
    15     5    21 1   
    16     6     7 ar  
    17     7     8 ar  
    18     7    26 1   
    19     8     9 ar  
    20     8    27 1   
    21    10    11 1   
    22    10    28 1   
    23    10    29 1   
    24    11    12 ar  
    25    11    16 ar  
    26    12    13 ar  
    27    12    30 1   
    28    13    14 ar  
    29    13    31 1   
    30    14    15 ar  
    31    14    18 1   
    32    15    16 ar  
    33    15    32 1   
    34    16    33 1   
    35    17    21 2   
    36    18    34 1   
@<TRIPOS>SUBSTRUCTURE
     1 19Z         1 TEMP              0 ****  ****    0 ROOT
