@<TRIPOS>MOLECULE
19Z
   35    36     1     0     0
SMALL
bcc


@<TRIPOS>ATOM
      1 N01          0.0000     0.0000     0.0000 nu         1 19Z      -0.321600
      2 N02          3.1180     0.1150     2.7940 nz         1 19Z       0.208600
      3 N03          5.3350     0.0020    -1.8480 no         1 19Z       1.046200
      4 C04          3.6910     0.0000     0.0000 ca         1 19Z       0.059000
      5 C05          2.3750     0.0000     0.4680 ca         1 19Z      -0.348600
      6 C06          1.3130     0.0010    -0.4500 ca         1 19Z       0.170600
      7 C07          1.5830     0.0030    -1.8140 ca         1 19Z      -0.197000
      8 C08          2.8890     0.0030    -2.2590 ca         1 19Z       0.091000
      9 C09          3.9400     0.0020    -1.3550 ca         1 19Z      -0.481200
     10 C11         -1.1030     0.1250    -0.9560 c3         1 19Z       0.208100
     11 C12         -2.4160     0.0970    -0.2150 ca         1 19Z      -0.179300
     12 C13         -2.9790     1.2760     0.2360 ca         1 19Z      -0.056000
     13 C14         -4.1820     1.2530     0.9160 ca         1 19Z      -0.133500
     14 C15         -4.8240     0.0450     1.1440 ca         1 19Z       0.162100
     15 C16         -4.2570    -1.1370     0.6900 ca         1 19Z      -0.133500
     16 C17         -3.0560    -1.1080     0.0060 ca         1 19Z      -0.056000
     17 O18          0.9600    -0.1110     2.3200 o          1 19Z      -0.503100
     18 O19         -6.0070     0.0190     1.8120 oh         1 19Z      -0.490100
     19 O20          6.2600     0.0010    -1.0560 o          1 19Z      -0.430000
     20 O21          5.5590     0.0030    -3.0450 o          1 19Z      -0.430000
     21 HN01        -0.1940    -0.1030     0.9770 hn         1 19Z       0.346800
     22 HN02         3.6320     0.9520     2.5990 hn         1 19Z       0.246467
     23 HN0A         2.7770     0.1440     3.7340 hn         1 19Z       0.246467
     24 H04          4.5150     0.0460     0.7020 ha         1 19Z       0.105000
     25 H07          0.7680     0.0030    -2.5270 ha         1 19Z       0.150000
     26 H08          3.0950     0.0040    -3.3230 ha         1 19Z       0.149000
     27 H11         -1.0670    -0.6990    -1.6580 h1         1 19Z       0.037700
     28 H11A        -1.0110     1.0610    -1.4930 h1         1 19Z       0.037700
     29 H13         -2.4770     2.2190     0.0580 ha         1 19Z       0.106500
     30 H14         -4.6230     2.1770     1.2700 ha         1 19Z       0.126500
     31 H16         -4.7580    -2.0810     0.8650 ha         1 19Z       0.126500
     32 H17         -2.6130    -2.0300    -0.3490 ha         1 19Z       0.106500
     33 HO19        -5.8440    -0.0740     2.7360 ho         1 19Z       0.412000
     34 H023         3.7230    -0.6770     2.6990 hn         1 19Z       0.246467
     35 C10          2.1020    -0.0020     1.9170 c          1 19Z       0.371700
@<TRIPOS>BOND
     1     1     6 1   
     2     1    10 1   
     3     1    21 1   
     4     2    22 1   
     5     2    23 1   
     6     2    34 1   
     7     2    35 1   
     8     3     9 1   
     9     3    19 1   
    10     3    20 1   
    11     4     5 ar  
    12     4     9 ar  
    13     4    24 1   
    14     5     6 ar  
    15     5    35 1   
    16     6     7 ar  
    17     7     8 ar  
    18     7    25 1   
    19     8     9 ar  
    20     8    26 1   
    21    10    11 1   
    22    10    27 1   
    23    10    28 1   
    24    11    12 ar  
    25    11    16 ar  
    26    12    13 ar  
    27    12    29 1   
    28    13    14 ar  
    29    13    30 1   
    30    14    15 ar  
    31    14    18 1   
    32    15    16 ar  
    33    15    31 1   
    34    16    32 1   
    35    17    35 2   
    36    18    33 1   
@<TRIPOS>SUBSTRUCTURE
     1 19Z         1 TEMP              0 ****  ****    0 ROOT
