@<TRIPOS>MOLECULE
1A0
   49    53     1     0     0
SMALL
bcc


@<TRIPOS>ATOM
      1 Cl1          0.0000     0.0000     0.0000 cl         1 1A0       0.035600
      2 C4           1.7360     0.0000     0.0000 cc         1 1A0      -0.076800
      3 C5           2.5360     0.0000     1.0790 cd         1 1A0      -0.220300
      4 C6           2.0630     0.0010     2.5100 c3         1 1A0       0.055800
      5 C7           1.7830    -1.4360     2.9550 c3         1 1A0       0.006900
      6 N1           3.8510    -0.0010     0.6820 na         1 1A0       0.301900
      7 C3           2.6090    -0.0070    -1.1740 ca         1 1A0      -0.305400
      8 C8           2.4020    -0.0110    -2.5620 ca         1 1A0       0.544200
      9 N13          1.1230    -0.0070    -3.0880 nh         1 1A0      -0.480300
     10 C17          0.9140    -1.1670    -3.9820 c3         1 1A0       0.148800
     11 C16         -0.0250    -0.7030    -5.1110 c3         1 1A0      -0.097500
     12 N18          0.6340    -0.8530    -6.4150 nz         1 1A0       0.074400
     13 C15         -0.3050     0.7890    -4.8160 c3         1 1A0      -0.021400
     14 C14          0.8970     1.1970    -3.9270 c3         1 1A0       0.141800
     15 N9           3.4660    -0.0170    -3.3600 nb         1 1A0      -0.687000
     16 C10          4.6950    -0.0200    -2.8590 ca         1 1A0       0.756300
     17 N11          4.9320    -0.0180    -1.5580 nb         1 1A0      -0.602000
     18 C2           3.9270    -0.0020    -0.6840 ca         1 1A0       0.275800
     19 S19          6.0630    -0.0290    -3.9710 ss         1 1A0      -0.340200
     20 C20          7.3890    -0.1940    -2.8220 ca         1 1A0      -0.092400
     21 C25          7.8940    -1.4620    -2.5050 ca         1 1A0       0.458200
     22 N24          8.8790    -1.6160    -1.6570 nb         1 1A0      -0.551000
     23 C23          9.4510    -0.5710    -1.0500 ca         1 1A0       0.494000
     24 N26         10.4570    -0.7500    -0.1840 nb         1 1A0      -0.514000
     25 C27         11.0070     0.2890     0.4020 ca         1 1A0       0.321900
     26 C28         10.5550     1.5830     0.1360 ca         1 1A0       0.291900
     27 N29          9.5690     1.7860    -0.7080 nb         1 1A0      -0.518000
     28 C22          8.9940     0.7450    -1.3180 ca         1 1A0       0.186300
     29 C21          7.9420     0.9280    -2.2320 ca         1 1A0      -0.012300
     30 H1           2.8280     0.4330     3.1430 hc         1 1A0       0.029700
     31 H2           1.1550     0.5870     2.5890 hc         1 1A0       0.029700
     32 H3           2.6560    -2.0490     2.7650 hc         1 1A0       0.010700
     33 H4           1.5560    -1.4480     4.0140 hc         1 1A0       0.010700
     34 H5           0.9390    -1.8280     2.4010 hc         1 1A0       0.010700
     35 H6           4.6380    -0.0020     1.3000 hn         1 1A0       0.134700
     36 H7           1.8610    -1.4860    -4.3990 h1         1 1A0       0.047700
     37 H8           0.4540    -1.9780    -3.4310 h1         1 1A0       0.047700
     38 H9          -0.9490    -1.2690    -5.0830 hx         1 1A0       0.097700
     39 H10         -0.0030    -0.5930    -7.1420 hn         1 1A0       0.227467
     40 H11          0.9120    -1.8070    -6.5410 hn         1 1A0       0.227467
     41 H13         -0.3140     1.3640    -5.7340 hc         1 1A0       0.050700
     42 H14         -1.2360     0.9020    -4.2750 hc         1 1A0       0.050700
     43 H15          0.6410     2.0490    -3.3090 h1         1 1A0       0.045700
     44 H16          1.7680     1.4060    -4.5370 h1         1 1A0       0.045700
     45 H17          7.7350    -2.3900    -3.0410 h4         1 1A0       0.000100
     46 H18         11.8210     0.1390     1.1010 h4         1 1A0      -0.002900
     47 H19         11.0220     2.4270     0.6300 h4         1 1A0      -0.001900
     48 H20          7.8020     1.8990    -2.6920 ha         1 1A0       0.136000
     49 H183         1.4320    -0.2510    -6.4570 hn         1 1A0       0.227467
@<TRIPOS>BOND
     1     1     2 1   
     2     2     3 2   
     3     2     7 1   
     4     3     4 1   
     5     3     6 1   
     6     4     5 1   
     7     4    30 1   
     8     4    31 1   
     9     5    32 1   
    10     5    33 1   
    11     5    34 1   
    12     6    18 1   
    13     6    35 1   
    14     7     8 ar  
    15     7    18 ar  
    16     8     9 1   
    17     8    15 ar  
    18     9    10 1   
    19     9    14 1   
    20    10    11 1   
    21    10    36 1   
    22    10    37 1   
    23    11    12 1   
    24    11    13 1   
    25    11    38 1   
    26    12    39 1   
    27    12    40 1   
    28    12    49 1   
    29    13    14 1   
    30    13    41 1   
    31    13    42 1   
    32    14    43 1   
    33    14    44 1   
    34    15    16 ar  
    35    16    17 ar  
    36    16    19 1   
    37    17    18 ar  
    38    19    20 1   
    39    20    21 ar  
    40    20    29 ar  
    41    21    22 ar  
    42    21    45 1   
    43    22    23 ar  
    44    23    24 ar  
    45    23    28 ar  
    46    24    25 ar  
    47    25    26 ar  
    48    25    46 1   
    49    26    27 ar  
    50    26    47 1   
    51    27    28 ar  
    52    28    29 ar  
    53    29    48 1   
@<TRIPOS>SUBSTRUCTURE
     1 1A0         1 TEMP              0 ****  ****    0 ROOT
