@<TRIPOS>MOLECULE
1A0
   49    53     1     0     0
SMALL
bcc


@<TRIPOS>ATOM
      1 Cl1          0.0420     0.2290     0.1100 cl         1 1A0      -0.028400
      2 C4           1.7050     0.2930     0.1770 cc         1 1A0      -0.039800
      3 C5           2.4710     0.5730     1.3220 cd         1 1A0      -0.006300
      4 C6           1.9540     0.8620     2.6790 c3         1 1A0      -0.038200
      5 C7           3.0110     1.1540     3.7120 c3         1 1A0      -0.107100
      6 N1           3.8360     0.5370     0.9950 na         1 1A0      -0.262100
      7 C3           2.6150     0.0720    -0.9140 ca         1 1A0      -0.266400
      8 C8           2.5350    -0.2520    -2.2870 ca         1 1A0       0.648200
      9 N13          1.2160    -0.4560    -2.8290 nh         1 1A0      -0.699300
     10 C17          1.0380    -1.6200    -3.6850 c3         1 1A0       0.152800
     11 C16          0.7880    -1.1300    -5.1460 c3         1 1A0       0.081500
     12 N18          2.0380    -1.1990    -5.9620 nz         1 1A0      -0.833600
     13 C15          0.2900     0.3160    -4.9670 c3         1 1A0      -0.124400
     14 C14          0.6590     0.7110    -3.5240 c3         1 1A0       0.155800
     15 N9           3.6660    -0.3830    -3.0390 nb         1 1A0      -0.825000
     16 C10          4.8750    -0.2060    -2.4130 ca         1 1A0       0.726300
     17 N11          5.0950     0.1030    -1.1030 nb         1 1A0      -0.667000
     18 C2           3.9630     0.2370    -0.3610 ca         1 1A0       0.474800
     19 S19          6.3810    -0.3770    -3.2690 ss         1 1A0      -0.057200
     20 C20          6.0330    -0.5010    -4.9130 ca         1 1A0      -0.189400
     21 C25          5.1120    -1.4450    -5.4590 ca         1 1A0       0.429200
     22 N24          4.8190    -1.5750    -6.7410 nb         1 1A0      -0.707000
     23 C23          5.5160    -0.7900    -7.6470 ca         1 1A0       0.523000
     24 N26          5.2130    -0.9040    -9.0090 nb         1 1A0      -0.619000
     25 C27          5.9470    -0.1860    -9.8340 ca         1 1A0       0.332900
     26 C28          7.0060     0.7020    -9.3840 ca         1 1A0       0.310900
     27 N29          7.2900     0.8670    -8.1080 nb         1 1A0      -0.593000
     28 C22          6.5440     0.1300    -7.2010 ca         1 1A0       0.243300
     29 C21          6.7540     0.2810    -5.7970 ca         1 1A0      -0.052300
     30 H1           1.3390    -0.0230     3.0080 hc         1 1A0       0.081200
     31 H2           1.2510     1.7390     2.5990 hc         1 1A0       0.081200
     32 H3           3.6180     2.0490     3.4300 hc         1 1A0       0.049367
     33 H4           2.5200     1.3660     4.6950 hc         1 1A0       0.049367
     34 H5           3.6960     0.2830     3.8500 hc         1 1A0       0.049367
     35 H6           4.5810     0.7030     1.6250 hn         1 1A0       0.332700
     36 H7           0.0900    -2.1280    -3.3420 h1         1 1A0       0.096200
     37 H8           1.8770    -2.3600    -3.6040 h1         1 1A0       0.096200
     38 H9           0.0200    -1.7750    -5.6580 hx         1 1A0       0.117700
     39 H10          2.3700    -2.1690    -6.0240 hn         1 1A0       0.466133
     40 H11          1.8770    -0.8450    -6.9090 hn         1 1A0       0.466133
     41 H13          0.7290     1.0330    -5.7030 hc         1 1A0       0.086700
     42 H14         -0.8220     0.3330    -5.0990 hc         1 1A0       0.086700
     43 H15         -0.2670     1.0100    -2.9570 h1         1 1A0       0.087200
     44 H16          1.3660     1.5840    -3.5200 h1         1 1A0       0.087200
     45 H17          4.5980    -2.1520    -4.7760 h4         1 1A0       0.033100
     46 H18          5.7250    -0.2760   -10.9140 h4         1 1A0       0.056100
     47 H19          7.6030     1.2710   -10.1200 h4         1 1A0       0.060100
     48 H20          7.4910     1.0210    -5.4340 ha         1 1A0       0.188000
     49 H183         2.7680    -0.6310    -5.5120 hn         1 1A0       0.466133
@<TRIPOS>BOND
     1     1     2 1   
     2     2     3 2   
     3     2     7 1   
     4     3     4 1   
     5     3     6 1   
     6     4     5 1   
     7     4    30 1   
     8     4    31 1   
     9     5    32 1   
    10     5    33 1   
    11     5    34 1   
    12     6    18 1   
    13     6    35 1   
    14     7     8 ar  
    15     7    18 ar  
    16     8     9 1   
    17     8    15 ar  
    18     9    10 1   
    19     9    14 1   
    20    10    11 1   
    21    10    36 1   
    22    10    37 1   
    23    11    12 1   
    24    11    13 1   
    25    11    38 1   
    26    12    39 1   
    27    12    40 1   
    28    12    49 1   
    29    13    14 1   
    30    13    41 1   
    31    13    42 1   
    32    14    43 1   
    33    14    44 1   
    34    15    16 ar  
    35    16    17 ar  
    36    16    19 1   
    37    17    18 ar  
    38    19    20 1   
    39    20    21 ar  
    40    20    29 ar  
    41    21    22 ar  
    42    21    45 1   
    43    22    23 ar  
    44    23    24 ar  
    45    23    28 ar  
    46    24    25 ar  
    47    25    26 ar  
    48    25    46 1   
    49    26    27 ar  
    50    26    47 1   
    51    27    28 ar  
    52    28    29 ar  
    53    29    48 1   
@<TRIPOS>SUBSTRUCTURE
     1 1A0         1 TEMP              0 ****  ****    0 ROOT
