@<TRIPOS>MOLECULE
molecule
   49    53     1     0     0
SMALL
bcc


@<TRIPOS>ATOM
      1 Cl1          0.0000     0.0000     0.0000 cl         1 1A0      -0.064400
      2 C4           1.7360     0.0000     0.0000 cc         1 1A0      -0.023800
      3 C5           2.5360     0.0000     1.0790 cd         1 1A0      -0.011300
      4 C6           2.0630     0.0010     2.5100 c3         1 1A0      -0.027200
      5 C7           1.7830    -1.4360     2.9550 c3         1 1A0      -0.091100
      6 N1           3.8510    -0.0010     0.6820 na         1 1A0      -0.259100
      7 C3           2.6090    -0.0070    -1.1740 ca         1 1A0      -0.301400
      8 C8           2.4020    -0.0110    -2.5620 ca         1 1A0       0.650200
      9 N13          1.1230    -0.0070    -3.0880 nh         1 1A0      -0.660300
     10 C17          0.9140    -1.1670    -3.9820 c3         1 1A0       0.138800
     11 C16         -0.0250    -0.7030    -5.1110 c3         1 1A0       0.077500
     12 N18          0.6340    -0.8530    -6.4150 nz         1 1A0      -0.808600
     13 C15         -0.3050     0.7890    -4.8160 c3         1 1A0      -0.101400
     14 C14          0.8970     1.1970    -3.9270 c3         1 1A0       0.145800
     15 N9           3.4660    -0.0170    -3.3600 nb         1 1A0      -0.816000
     16 C10          4.6950    -0.0200    -2.8590 ca         1 1A0       0.807300
     17 N11          4.9320    -0.0180    -1.5580 nb         1 1A0      -0.741000
     18 C2           3.9270    -0.0020    -0.6840 ca         1 1A0       0.520800
     19 S19          6.0630    -0.0290    -3.9710 ss         1 1A0      -0.195200
     20 C20          7.3890    -0.1940    -2.8220 ca         1 1A0      -0.142400
     21 C25          7.8940    -1.4620    -2.5050 ca         1 1A0       0.485200
     22 N24          8.8790    -1.6160    -1.6570 nb         1 1A0      -0.660000
     23 C23          9.4510    -0.5710    -1.0500 ca         1 1A0       0.581000
     24 N26         10.4570    -0.7500    -0.1840 nb         1 1A0      -0.622000
     25 C27         11.0070     0.2890     0.4020 ca         1 1A0       0.341900
     26 C28         10.5550     1.5830     0.1360 ca         1 1A0       0.299900
     27 N29          9.5690     1.7860    -0.7080 nb         1 1A0      -0.625000
     28 C22          8.9940     0.7450    -1.3180 ca         1 1A0       0.221300
     29 C21          7.9420     0.9280    -2.2320 ca         1 1A0      -0.031300
     30 H1           2.8280     0.4330     3.1430 hc         1 1A0       0.069700
     31 H2           1.1550     0.5870     2.5890 hc         1 1A0       0.069700
     32 H3           2.6560    -2.0490     2.7650 hc         1 1A0       0.047367
     33 H4           1.5560    -1.4480     4.0140 hc         1 1A0       0.047367
     34 H5           0.9390    -1.8280     2.4010 hc         1 1A0       0.047367
     35 H6           4.6380    -0.0020     1.3000 hn         1 1A0       0.326700
     36 H7           1.8610    -1.4860    -4.3990 h1         1 1A0       0.084700
     37 H8           0.4540    -1.9780    -3.4310 h1         1 1A0       0.084700
     38 H9          -0.9490    -1.2690    -5.0830 hx         1 1A0       0.123700
     39 H10         -0.0030    -0.5930    -7.1420 hn         1 1A0       0.456467
     40 H11          0.9120    -1.8070    -6.5410 hn         1 1A0       0.456467
     41 H13         -0.3140     1.3640    -5.7340 hc         1 1A0       0.088200
     42 H14         -1.2360     0.9020    -4.2750 hc         1 1A0       0.088200
     43 H15          0.6410     2.0490    -3.3090 h1         1 1A0       0.080700
     44 H16          1.7680     1.4060    -4.5370 h1         1 1A0       0.080700
     45 H17          7.7350    -2.3900    -3.0410 h4         1 1A0       0.046100
     46 H18         11.8210     0.1390     1.1010 h4         1 1A0       0.046100
     47 H19         11.0220     2.4270     0.6300 h4         1 1A0       0.044100
     48 H20          7.8020     1.8990    -2.6920 ha         1 1A0       0.169000
     49 H183         1.4320    -0.2510    -6.4570 hn         1 1A0       0.456467
@<TRIPOS>BOND
     1    25    24 ar
     2    25    26 ar
     3    24    23 ar
     4    26    27 ar
     5    23    22 ar
     6    23    28 ar
     7    22    21 ar
     8    27    28 ar
     9    28    29 ar
    10    21    20 ar
    11    29    20 ar
    12    20    19 1
    13    12    11 1
    14    19    16 1
    15    13    14 1
    16    13    11 1
    17    14     9 1
    18    11    10 1
    19    16    15 ar
    20    16    17 ar
    21    15     8 ar
    22     9     8 1
    23     9    10 1
    24    17    18 ar
    25     8     7 ar
    26    18     7 ar
    27    18     6 1
    28     7     2 1
    29     6     3 1
    30     2     3 2
    31     2     1 1
    32     3     4 1
    33     4     5 1
    34     4    30 1
    35     4    31 1
    36     5    32 1
    37     5    33 1
    38     5    34 1
    39     6    35 1
    40    10    36 1
    41    10    37 1
    42    11    38 1
    43    12    39 1
    44    12    40 1
    45    13    41 1
    46    13    42 1
    47    14    43 1
    48    14    44 1
    49    21    45 1
    50    25    46 1
    51    26    47 1
    52    29    48 1
    53    49    12 1
@<TRIPOS>SUBSTRUCTURE
     1 1A0         1 TEMP              0 ****  ****    0 ROOT
