@<TRIPOS>MOLECULE
1A1
   39    43     1     0     0
SMALL
bcc


@<TRIPOS>ATOM
      1 O9          -0.0980    -0.1160     0.0200 o          1 1A1      -0.533100
      2 C8           1.1360    -0.0910     0.1160 c          1 1A1       0.706100
      3 C10          1.8430    -0.1050     1.4400 cx         1 1A1      -0.233700
      4 C12          1.8840     1.1670     2.2500 cx         1 1A1      -0.103900
      5 C11          1.0060     0.0360     2.6860 cx         1 1A1      -0.103900
      6 N7           1.9960    -0.0270    -0.9920 ns         1 1A1      -0.547400
      7 C6           1.6270    -0.1270    -2.3470 ca         1 1A1       0.814900
      8 N1           2.5240     0.3990    -3.2610 nb         1 1A1      -0.727000
      9 N5           0.4360    -0.7670    -2.6590 nb         1 1A1      -0.741000
     10 C4           0.0810    -0.8730    -3.9650 ca         1 1A1       0.650800
     11 N22         -1.1400    -1.4910    -4.2540 na         1 1A1      -0.270700
     12 C26         -1.5750    -2.0580    -5.4720 cc         1 1A1      -0.215600
     13 C25         -2.8350    -2.6050    -5.2150 cd         1 1A1       0.294200
     14 N24         -3.1950    -2.4020    -3.8710 nd         1 1A1      -0.663000
     15 C23         -2.1760    -1.7490    -3.3060 cc         1 1A1       0.445400
     16 C3           0.9390    -0.3490    -4.9960 ca         1 1A1      -0.201200
     17 N13          0.7460    -0.3490    -6.3710 nc         1 1A1      -0.492100
     18 C14          1.7760     0.2430    -6.9670 cd         1 1A1       0.391800
     19 S15          3.0260     0.8320    -5.9030 ss         1 1A1      -0.058500
     20 C2           2.1650     0.2760    -4.5500 ca         1 1A1       0.463600
     21 C16          1.9170     0.4330    -8.3980 ca         1 1A1      -0.237200
     22 C21          3.2010     0.6260    -8.9640 ca         1 1A1       0.410200
     23 N20          3.4110     0.8170   -10.2760 nb         1 1A1      -0.659000
     24 C19          2.3330     0.8190   -11.0860 ca         1 1A1       0.408200
     25 C18          1.0180     0.6330   -10.6240 ca         1 1A1      -0.249300
     26 C17          0.8080     0.4370    -9.2590 ca         1 1A1      -0.049000
     27 H1           2.7180    -0.7840     1.4670 hc         1 1A1       0.102700
     28 H2           2.8030     1.3940     2.8190 hc         1 1A1       0.085950
     29 H3           1.4160     2.0790     1.8380 hc         1 1A1       0.085950
     30 H4           1.2850    -0.5600     3.5740 hc         1 1A1       0.085950
     31 H5          -0.0910     0.1310     2.5710 hc         1 1A1       0.085950
     32 H6           2.9460     0.2280    -0.8180 hn         1 1A1       0.342500
     33 H7          -0.9850    -2.0390    -6.3860 h4         1 1A1       0.202000
     34 H8          -3.5000    -3.1260    -5.9020 h4         1 1A1       0.047100
     35 H9          -2.1020    -1.4250    -2.2580 h5         1 1A1       0.094100
     36 H10          4.1060     0.6230    -8.3260 h4         1 1A1       0.027100
     37 H11          2.5410     0.9780   -12.1600 h4         1 1A1       0.028100
     38 H12          0.1740     0.6430   -11.3270 ha         1 1A1       0.151000
     39 H13         -0.2090     0.2890    -8.8630 ha         1 1A1       0.160000
@<TRIPOS>BOND
     1     1     2 2   
     2     2     3 1   
     3     2     6 1   
     4     3     4 1   
     5     3     5 1   
     6     3    27 1   
     7     4     5 1   
     8     4    28 1   
     9     4    29 1   
    10     5    30 1   
    11     5    31 1   
    12     6     7 1   
    13     6    32 1   
    14     7     8 ar  
    15     7     9 ar  
    16     8    20 ar  
    17     9    10 ar  
    18    10    11 1   
    19    10    16 ar  
    20    11    12 1   
    21    11    15 1   
    22    12    13 2   
    23    12    33 1   
    24    13    14 1   
    25    13    34 1   
    26    14    15 2   
    27    15    35 1   
    28    16    17 1   
    29    16    20 ar  
    30    17    18 2   
    31    18    19 1   
    32    18    21 1   
    33    19    20 1   
    34    21    22 ar  
    35    21    26 ar  
    36    22    23 ar  
    37    22    36 1   
    38    23    24 ar  
    39    24    25 ar  
    40    24    37 1   
    41    25    26 ar  
    42    25    38 1   
    43    26    39 1   
@<TRIPOS>SUBSTRUCTURE
     1 1A1         1 TEMP              0 ****  ****    0 ROOT
