@<TRIPOS>MOLECULE
molecule
   39    43     1     0     0
SMALL
bcc


@<TRIPOS>ATOM
      1 O9           0.0000     0.0000     0.0000 o          1 1A1      -0.524100
      2 C8           1.2120     0.0000     0.0000 c          1 1A1       0.685100
      3 C10          1.9670     0.0000     1.3050 cx         1 1A1      -0.241700
      4 C12          1.1440     0.0010     2.5960 cx         1 1A1      -0.104900
      5 C11          1.8910    -1.2630     2.1650 cx         1 1A1      -0.104900
      6 N7           1.8860    -0.0060    -1.1660 ns         1 1A1      -0.527400
      7 C6           1.1910    -0.0130    -2.3710 ca         1 1A1       0.839900
      8 N1          -0.1290    -0.0120    -2.3500 nb         1 1A1      -0.696000
      9 N5           1.8720    -0.0130    -3.5090 nb         1 1A1      -0.796000
     10 C4           1.2560    -0.0180    -4.6790 ca         1 1A1       0.652800
     11 N22          1.9920    -0.0200    -5.8630 na         1 1A1      -0.227700
     12 C26          3.1910     0.6130    -6.0790 cc         1 1A1      -0.250600
     13 C25          3.5440     0.3520    -7.3510 cd         1 1A1       0.317200
     14 N24          2.5930    -0.4180    -7.9030 nd         1 1A1      -0.687000
     15 C23          1.6610    -0.6510    -7.0200 cc         1 1A1       0.437400
     16 C3          -0.1620    -0.0240    -4.7150 ca         1 1A1      -0.165200
     17 N13         -0.9960    -0.0300    -5.7650 nd         1 1A1      -0.564100
     18 C14         -2.2640    -0.0280    -5.5290 cc         1 1A1       0.460800
     19 S15         -2.5630    -0.0190    -3.7960 ss         1 1A1      -0.133500
     20 C2          -0.8310    -0.0180    -3.4840 ca         1 1A1       0.516600
     21 C16         -3.3170    -0.0330    -6.5670 ca         1 1A1      -0.241200
     22 C21         -2.9780    -0.0390    -7.9210 ca         1 1A1       0.467200
     23 N20         -3.9140    -0.0430    -8.8460 nb         1 1A1      -0.687000
     24 C19         -5.1970    -0.0410    -8.5380 ca         1 1A1       0.437200
     25 C18         -5.6150    -0.0350    -7.2200 ca         1 1A1      -0.255300
     26 C17         -4.6690    -0.0360    -6.2100 ca         1 1A1      -0.074000
     27 H1           2.9070     0.5350     1.3660 hc         1 1A1       0.090700
     28 H2           0.0690    -0.0230     2.4650 hc         1 1A1       0.086950
     29 H3           1.5810     0.5410     3.4270 hc         1 1A1       0.086950
     30 H4           2.7840    -1.4960     2.7330 hc         1 1A1       0.086950
     31 H5           1.2720    -2.0610     1.7710 hc         1 1A1       0.086950
     32 H6           2.8870     0.0190    -1.1660 hn         1 1A1       0.348500
     33 H7           3.7460     1.2070    -5.3640 h4         1 1A1       0.185000
     34 H8           4.4410     0.7040    -7.8460 h4         1 1A1       0.045100
     35 H9           0.7690    -1.2440    -7.1840 h5         1 1A1       0.083100
     36 H10         -1.9340    -0.0410    -8.2130 h4         1 1A1       0.049100
     37 H11         -5.9350    -0.0420    -9.3310 h4         1 1A1       0.028100
     38 H12         -6.6710    -0.0350    -6.9810 ha         1 1A1       0.145000
     39 H13         -4.9680    -0.0310    -5.1690 ha         1 1A1       0.143000
@<TRIPOS>BOND
     1    24    25 ar
     2    24    23 ar
     3    25    26 ar
     4    23    22 ar
     5    26    21 ar
     6    22    21 ar
     7    21    18 1
     8    18    17 2
     9    18    19 1
    10    17    16 1
    11    19    20 1
    12    12    13 2
    13    12    11 1
    14    16    20 ar
    15    16    10 ar
    16    13    14 1
    17    20     8 ar
    18    11    10 1
    19    11    15 1
    20    10     9 ar
    21    14    15 2
    22     8     7 ar
    23     9     7 ar
    24     7     6 1
    25     6     2 1
    26     1     2 2
    27     2     3 1
    28     3     4 1
    29     3     5 1
    30     4     5 1
    31     3    27 1
    32     4    28 1
    33     4    29 1
    34     5    30 1
    35     5    31 1
    36     6    32 1
    37    12    33 1
    38    13    34 1
    39    15    35 1
    40    22    36 1
    41    24    37 1
    42    25    38 1
    43    26    39 1
@<TRIPOS>SUBSTRUCTURE
     1 1A1         1 TEMP              0 ****  ****    0 ROOT
