@<TRIPOS>MOLECULE
1A2
   53    56     1     0     0
SMALL
bcc


@<TRIPOS>ATOM
      1 C8           0.1840    -0.2680    -0.1720 c3         1 1A2       0.217800
      2 C5           4.2480    -0.1960     0.1830 ce         1 1A2       0.572800
      3 N6           3.5800    -0.2100     1.2900 n2         1 1A2      -0.568900
      4 C2           2.6520    -1.6650    -3.5030 ca         1 1A2      -0.063000
      5 C4           4.5790    -0.9820    -2.2340 ca         1 1A2       0.155900
      6 C1           1.8210    -1.4310    -2.4040 ca         1 1A2       0.071900
      7 C3           4.0250    -1.4500    -3.4260 ca         1 1A2      -0.157000
      8 C4A          3.7660    -0.6980    -1.1110 ca         1 1A2      -0.321900
      9 C7           2.2060    -0.7710     1.2910 c3         1 1A2       0.450400
     10 N8           1.5700    -0.6720    -0.0490 nh         1 1A2      -0.706000
     11 C8A          2.3530    -0.9330    -1.1640 ca         1 1A2       0.239600
     12 C11          2.2670    -2.2720     1.7370 c3         1 1A2      -0.108900
     13 C12          2.8200    -2.4280     3.1520 c3         1 1A2       0.084500
     14 N13          2.1630    -1.6130     4.1490 n          1 1A2      -0.466800
     15 C14          1.9980    -0.2290     3.7850 c3         1 1A2       0.084500
     16 C15          1.4010    -0.0090     2.3900 c3         1 1A2      -0.108900
     17 C16          1.3300    -2.2350     5.0950 c          1 1A2       0.668300
     18 O17          1.1620    -3.4690     5.0580 o          1 1A2      -0.568100
     19 N18          5.6100     0.4080     0.2250 nz         1 1A2      -0.803600
     20 C19          0.7280    -1.4180     6.1790 ce         1 1A2      -0.197400
     21 C20          1.4280    -0.4950     6.8830 cf         1 1A2       0.087600
     22 N21          0.8890     0.2620     7.9310 nf         1 1A2      -0.545300
     23 C22         -0.2860    -0.0830     8.3840 ce         1 1A2       0.496200
     24 C23         -1.0980    -1.2550     7.8970 c3         1 1A2      -0.167700
     25 C24         -0.6920    -1.7230     6.5090 c3         1 1A2      -0.040200
     26 C25         -0.8920     0.6560     9.4550 cg         1 1A2       0.175600
     27 N26         -1.3970     1.2440    10.3200 n1         1 1A2      -0.295800
     28 C13         -0.8460    -1.3370     0.1600 c3         1 1A2      -0.123100
     29 F9           5.9250    -0.8050    -2.1690 f          1 1A2      -0.154900
     30 F10          0.5030    -1.7120    -2.5300 f          1 1A2      -0.111900
     31 H81          0.0110     0.0810    -1.2330 h1         1 1A2       0.067200
     32 H82          0.0180     0.6320     0.4890 h1         1 1A2       0.067200
     33 H2           2.2050    -2.0470    -4.4390 ha         1 1A2       0.186000
     34 H3           4.6750    -1.6590    -4.2920 ha         1 1A2       0.184000
     35 H111         1.2230    -2.6810     1.6870 hc         1 1A2       0.076700
     36 H112         2.9020    -2.8660     1.0340 hc         1 1A2       0.076700
     37 H121         3.9130    -2.1540     3.1630 h1         1 1A2       0.072950
     38 H122         2.7360    -3.5180     3.4410 h1         1 1A2       0.072950
     39 H141         3.0100     0.2660     3.8450 h1         1 1A2       0.072950
     40 H142         1.3230     0.2910     4.5250 h1         1 1A2       0.072950
     41 H151         1.3870     1.0910     2.1830 hc         1 1A2       0.076700
     42 H152         0.3460    -0.3880     2.3820 hc         1 1A2       0.076700
     43 H181         5.8220     0.8110     1.1460 hn         1 1A2       0.476133
     44 H182         6.2970    -0.3250    -0.0010 hn         1 1A2       0.476133
     45 H20          2.4900    -0.2560     6.6860 h4         1 1A2       0.172000
     46 H231        -0.9640    -2.0900     8.6400 hc         1 1A2       0.087200
     47 H232        -2.1880    -0.9850     7.8950 hc         1 1A2       0.087200
     48 H241        -0.8600    -2.8330     6.4310 hc         1 1A2       0.075200
     49 H242        -1.3490    -1.2350     5.7370 hc         1 1A2       0.075200
     50 H131        -1.8630    -0.8880     0.0440 hc         1 1A2       0.058367
     51 H132        -0.7410    -1.7120     1.2060 hc         1 1A2       0.058367
     52 H133        -0.7600    -2.2060    -0.5360 hc         1 1A2       0.058367
     53 H183         5.6600     1.1370    -0.4960 hn         1 1A2       0.476133
@<TRIPOS>BOND
     1     1    10 1   
     2     1    28 1   
     3     1    31 1   
     4     1    32 1   
     5     2     3 2   
     6     2     8 1   
     7     2    19 1   
     8     3     9 1   
     9     4     6 ar  
    10     4     7 ar  
    11     4    33 1   
    12     5     7 ar  
    13     5     8 ar  
    14     5    29 1   
    15     6    11 ar  
    16     6    30 1   
    17     7    34 1   
    18     8    11 ar  
    19     9    10 1   
    20     9    12 1   
    21     9    16 1   
    22    10    11 1   
    23    12    13 1   
    24    12    35 1   
    25    12    36 1   
    26    13    14 1   
    27    13    37 1   
    28    13    38 1   
    29    14    15 1   
    30    14    17 1   
    31    15    16 1   
    32    15    39 1   
    33    15    40 1   
    34    16    41 1   
    35    16    42 1   
    36    17    18 2   
    37    17    20 1   
    38    19    43 1   
    39    19    44 1   
    40    19    53 1   
    41    20    21 2   
    42    20    25 1   
    43    21    22 1   
    44    21    45 1   
    45    22    23 2   
    46    23    24 1   
    47    23    26 1   
    48    24    25 1   
    49    24    46 1   
    50    24    47 1   
    51    25    48 1   
    52    25    49 1   
    53    26    27 3   
    54    28    50 1   
    55    28    51 1   
    56    28    52 1   
@<TRIPOS>SUBSTRUCTURE
     1 1A2         1 TEMP              0 ****  ****    0 ROOT
