@<TRIPOS>MOLECULE
1A2
   53    59     1     0     0
SMALL
bcc


@<TRIPOS>ATOM
      1 C8           0.0000     0.0000     0.0000 c3         1 1A2      -0.402000
      2 C5           4.1500     0.0000     0.0000 c2         1 1A2      -0.182000
      3 N6           3.4930     0.0000     1.1360 n2         1 1A2       0.026000
      4 C2           1.7930    -0.6430    -3.4720 ca         1 1A2      -0.046000
      5 C4           3.9460    -0.6550    -2.4110 ca         1 1A2       0.037000
      6 C1           1.1980    -0.2100    -2.3020 ca         1 1A2       0.123000
      7 C3           3.1580    -0.8630    -3.5300 ca         1 1A2      -0.096000
      8 C4A          3.3550    -0.2220    -1.2280 ca         1 1A2      -0.249000
      9 C7           2.0480    -0.2380     1.1340 c3         1 1A2      -0.044000
     10 N8           1.3990     0.4490     0.0150 nh         1 1A2       0.094000
     11 C8A          1.9720     0.0070    -1.1690 ca         1 1A2       0.042000
     12 C11          1.4570     0.2750     2.4520 c3         1 1A2      -0.332000
     13 C12          2.1560    -0.4200     3.6240 DU         1 1A2      -0.131000
     14 N13          2.0450    -1.8750     3.4450 n          1 1A2      -0.149000
     15 C14          2.4920    -2.4650     2.1760 DU         1 1A2      -0.131000
     16 C15          1.7900    -1.7450     1.0220 c3         1 1A2      -0.332000
     17 C16          1.5450    -2.6510     4.4270 c2         1 1A2       0.310000
     18 O17          1.0870    -2.1410     5.4320 o          1 1A2      -0.324000
     19 N18          5.5140     0.1960    -0.0470 nz         1 1A2       0.306000
     20 C19          1.5520    -4.1080     4.2820 c2         1 1A2      -0.250000
     21 C20          2.7030    -4.7990     4.4360 c2         1 1A2      -0.025000
     22 N21          2.7420    -6.1290     4.2810 n2         1 1A2      -0.034000
     23 C22          1.7880    -6.7830     3.6840 c2         1 1A2       0.103000
     24 C23          0.6040    -6.0600     3.0940 c3         1 1A2      -0.091000
     25 C24          0.2720    -4.8430     3.9680 c3         1 1A2      -0.027000
     26 C25          1.8650    -8.2100     3.5850 c1         1 1A2      -0.146000
     27 N26          1.9440    -9.3410     3.5110 n1         1 1A2       0.029000
     28 C13         -0.7460     0.6180     1.1840 DU         1 1A2      -0.257000
     29 H81         -0.1300    -0.7990     0.7200 h1         1 1A2       0.134000
     30 H82         -0.6480     0.8290     0.2600 DU         1 1A2       0.310000
     31 H2           1.1890    -0.8180    -4.3540 ha         1 1A2       0.142000
     32 H3           3.6140    -1.2010    -4.4530 ha         1 1A2       0.142000
     33 H111         1.2270    -0.5730     3.0850 DU         1 1A2       0.265500
     34 H112         2.1920     0.8990     2.9460 hc         1 1A2       0.147500
     35 H121         1.6670    -0.1280     4.5460 ha         1 1A2       0.100250
     36 H122         3.1900    -0.1000     3.6540 ha         1 1A2       0.100250
     37 H141         3.5670    -2.3570     2.0990 ha         1 1A2       0.100250
     38 H142         2.2390    -3.5190     2.1740 ha         1 1A2       0.100250
     39 H151         1.4660    -2.1160     1.9860 DU         1 1A2       0.265500
     40 H152         2.7130    -2.2380     0.7420 hc         1 1A2       0.147500
     41 H181         5.9460    -0.5780    -0.5110 hn         1 1A2       0.204667
     42 H182         5.7130     1.0390    -0.5490 hn         1 1A2       0.204667
     43 H20          3.6000    -4.2910     4.7700 h4         1 1A2       0.127000
     44 H231         0.8820    -5.6730     2.1210 hc         1 1A2       0.082500
     45 H232        -0.2100    -6.7650     2.9760 hc         1 1A2       0.082500
     46 H241        -0.2750    -4.9980     4.8900 hc         1 1A2       0.079500
     47 H242        -0.3240    -4.2320     3.3010 hc         1 1A2       0.079500
     48 H131        -0.0310     0.9600     1.9230 ha         1 1A2       0.103667
     49 H132        -1.3960    -0.1260     1.6290 ha         1 1A2       0.103667
     50 H133        -1.3390     1.4560     0.8400 ha         1 1A2       0.103667
     51 F9           5.2780    -0.8690    -2.4670 f          1 1A2      -0.104000
     52 H183         5.7250     0.9140    -0.7120 hn         1 1A2       0.204667
     53 F10         -0.1370     0.0020    -2.2600 f          1 1A2      -0.052000
@<TRIPOS>BOND
     1     1    10 1   
     2     1    28 1   
     3     1    29 1   
     4     1    30 1   
     5     2     3 1   
     6     2     8 1   
     7     2    19 1   
     8     3     9 1   
     9     4     6 1   
    10     4     7 1   
    11     4    31 1   
    12     5     7 1   
    13     5     8 1   
    14     5    51 1   
    15     6    11 1   
    16     6    53 1   
    17     7    32 1   
    18     8    11 1   
    19     9    10 1   
    20     9    12 1   
    21     9    16 1   
    22    10    11 1   
    23    12    13 1   
    24    12    33 1   
    25    12    34 1   
    26    13    14 1   
    27    13    33 1   
    28    13    35 1   
    29    13    36 1   
    30    14    15 1   
    31    14    17 1   
    32    15    16 1   
    33    15    37 1   
    34    15    38 1   
    35    15    39 1   
    36    16    39 1   
    37    16    40 1   
    38    17    18 1   
    39    17    20 1   
    40    19    41 1   
    41    19    42 1   
    42    19    52 1   
    43    20    21 1   
    44    20    25 1   
    45    21    22 1   
    46    21    43 1   
    47    22    23 1   
    48    23    24 1   
    49    23    26 1   
    50    24    25 1   
    51    24    44 1   
    52    24    45 1   
    53    25    46 1   
    54    25    47 1   
    55    26    27 1   
    56    28    30 1   
    57    28    48 1   
    58    28    49 1   
    59    28    50 1   
@<TRIPOS>SUBSTRUCTURE
     1 1A2         1 TEMP              0 ****  ****    0 ROOT
