@<TRIPOS>MOLECULE
molecule
   53    56     1     0     0
SMALL
bcc


@<TRIPOS>ATOM
      1 C8           0.0000     0.0000     0.0000 c3         1 1A2      -0.083200
      2 C5           4.1500     0.0000     0.0000 ce         1 1A2       0.489800
      3 N6           3.4930     0.0000     1.1360 n2         1 1A2      -0.504900
      4 C2           1.7930    -0.6430    -3.4720 ca         1 1A2      -0.095000
      5 C4           3.9460    -0.6550    -2.4110 ca         1 1A2       0.097900
      6 C1           1.1980    -0.2100    -2.3020 ca         1 1A2       0.165900
      7 C3           3.1580    -0.8630    -3.5300 ca         1 1A2      -0.131000
      8 C4A          3.3550    -0.2220    -1.2280 ca         1 1A2      -0.336900
      9 C7           2.0480    -0.2380     1.1340 c3         1 1A2       0.327400
     10 N8           1.3990     0.4490     0.0150 nh         1 1A2      -0.530000
     11 C8A          1.9720     0.0070    -1.1690 ca         1 1A2       0.178600
     12 C11          1.4570     0.2750     2.4520 c3         1 1A2      -0.265900
     13 C12          2.1560    -0.4200     3.6240 c3         1 1A2       0.035000
     14 N13          2.0450    -1.8750     3.4450 n          1 1A2      -0.598800
     15 C14          2.4920    -2.4650     2.1760 c3         1 1A2       0.035000
     16 C15          1.7900    -1.7450     1.0220 c3         1 1A2      -0.265900
     17 C16          1.5450    -2.6510     4.4270 c          1 1A2       0.671300
     18 O17          1.0870    -2.1410     5.4320 o          1 1A2      -0.538100
     19 N18          5.5140     0.1960    -0.0470 nz         1 1A2      -0.871600
     20 C19          1.5520    -4.1080     4.2820 ce         1 1A2      -0.254400
     21 C20          2.7030    -4.7990     4.4360 cf         1 1A2       0.120600
     22 N21          2.7420    -6.1290     4.2810 nf         1 1A2      -0.569300
     23 C22          1.7880    -6.7830     3.6840 ce         1 1A2       0.508200
     24 C23          0.6040    -6.0600     3.0940 c3         1 1A2      -0.163700
     25 C24          0.2720    -4.8430     3.9680 c3         1 1A2      -0.024200
     26 C25          1.8650    -8.2100     3.5850 cg         1 1A2       0.185600
     27 N26          1.9440    -9.3410     3.5110 n1         1 1A2      -0.282800
     28 C13         -0.7460     0.6180     1.1840 c3         1 1A2      -0.220100
     29 H81         -0.1300    -0.7990     0.7200 h1         1 1A2       0.195700
     30 H82         -0.6480     0.8290     0.2600 h1         1 1A2       0.195700
     31 H2           1.1890    -0.8180    -4.3540 ha         1 1A2       0.180000
     32 H3           3.6140    -1.2010    -4.4530 ha         1 1A2       0.174000
     33 H111         1.2270    -0.5730     3.0850 hc         1 1A2       0.186950
     34 H112         2.1920     0.8990     2.9460 hc         1 1A2       0.186950
     35 H121         1.6670    -0.1280     4.5460 h1         1 1A2       0.090450
     36 H122         3.1900    -0.1000     3.6540 h1         1 1A2       0.090450
     37 H141         3.5670    -2.3570     2.0990 h1         1 1A2       0.090450
     38 H142         2.2390    -3.5190     2.1740 h1         1 1A2       0.090450
     39 H151         1.4660    -2.1160     1.9860 hc         1 1A2       0.186950
     40 H152         2.7130    -2.2380     0.7420 hc         1 1A2       0.186950
     41 H181         5.9460    -0.5780    -0.5110 hn         1 1A2       0.515800
     42 H182         5.7130     1.0390    -0.5490 hn         1 1A2       0.515800
     43 H20          3.6000    -4.2910     4.7700 h4         1 1A2       0.173000
     44 H231         0.8820    -5.6730     2.1210 hc         1 1A2       0.079200
     45 H232        -0.2100    -6.7650     2.9760 hc         1 1A2       0.079200
     46 H241        -0.2750    -4.9980     4.8900 hc         1 1A2       0.077700
     47 H242        -0.3240    -4.2320     3.3010 hc         1 1A2       0.077700
     48 H131        -0.0310     0.9600     1.9230 hc         1 1A2       0.092700
     49 H132        -1.3960    -0.1260     1.6290 hc         1 1A2       0.092700
     50 H133        -1.3390     1.4560     0.8400 hc         1 1A2       0.092700
     51 F9           5.2780    -0.8690    -2.4670 f          1 1A2      -0.171900
     52 H183         5.7250     0.9140    -0.7120 hn         1 1A2       0.515800
     53 F10         -0.1370     0.0020    -2.2600 f          1 1A2      -0.072900
@<TRIPOS>BOND
     1     1    10 1
     2     1    28 1
     3     1    29 1
     4     1    30 1
     5     2     3 2
     6     2     8 1
     7     2    19 1
     8     3     9 1
     9     4     6 ar
    10     4     7 ar
    11     4    31 1
    12     5     7 ar
    13     5     8 ar
    14     5    51 1
    15     6    11 ar
    16     6    53 1
    17     7    32 1
    18     8    11 ar
    19     9    10 1
    20     9    12 1
    21     9    16 1
    22    10    11 1
    23    12    13 1
    24    12    33 1
    25    12    34 1
    26    13    14 1
    27    13    35 1
    28    13    36 1
    29    14    15 1
    30    14    17 1
    31    15    16 1
    32    15    37 1
    33    15    38 1
    34    16    39 1
    35    16    40 1
    36    17    18 2
    37    17    20 1
    38    19    41 1
    39    19    42 1
    40    20    21 2
    41    20    25 1
    42    21    22 1
    43    21    43 1
    44    22    23 2
    45    23    24 1
    46    23    26 1
    47    24    25 1
    48    24    44 1
    49    24    45 1
    50    25    46 1
    51    25    47 1
    52    26    27 3
    53    28    48 1
    54    28    49 1
    55    28    50 1
    56    52    19 1
@<TRIPOS>SUBSTRUCTURE
     1 1A2         1 TEMP              0 ****  ****    0 ROOT
