@<TRIPOS>MOLECULE
1A3
   37    39     1     0     0
SMALL
bcc


@<TRIPOS>ATOM
      1 CAH         -0.9780    -0.0150     0.1250 ca         1 1A3      -0.127500
      2 CAE          0.2290    -0.4440    -0.4250 ca         1 1A3      -0.122500
      3 CAD          1.2100    -1.0050     0.3920 ca         1 1A3      -0.121000
      4 CAF          0.9830    -1.1360     1.7620 ca         1 1A3      -0.122500
      5 CAI         -0.2210    -0.7080     2.3170 ca         1 1A3      -0.127500
      6 CAR         -1.2120    -0.1470     1.4990 ca         1 1A3      -0.078300
      7 CAN         -2.4850     0.3190     2.0910 c3         1 1A3      -0.259300
      8 SAW         -3.5920    -0.9100     2.6120 s6         1 1A3       1.457900
      9 OAB         -3.1280    -1.4570     3.8190 o          1 1A3      -0.646300
     10 OAC         -4.8590    -0.3120     2.6670 o          1 1A3      -0.646300
     11 NAO         -3.4880    -1.9710     1.3810 nu         1 1A3      -0.780500
     12 CAS         -4.0940    -3.2370     1.3270 ca         1 1A3       0.177600
     13 CAM         -4.5340    -3.8870     2.5000 ca         1 1A3      -0.163000
     14 CAJ         -4.2660    -3.8840     0.0820 ca         1 1A3      -0.159000
     15 CAG         -4.8650    -5.1380     0.0250 ca         1 1A3      -0.098000
     16 CAK         -5.3060    -5.7740     1.1830 ca         1 1A3      -0.143000
     17 CAT         -5.1400    -5.1460     2.4230 ca         1 1A3      -0.006800
     18 CAU         -5.5720    -5.7930     3.6600 cc         1 1A3       0.049400
     19 CAL         -4.9460    -5.6860     4.8760 cd         1 1A3      -0.180400
     20 SAQ         -5.7240    -6.5800     6.0840 ss         1 1A3      -0.057200
     21 CAV         -6.9770    -7.1440     4.9660 c          1 1A3       0.677100
     22 OAA         -7.9410    -7.8850     5.2010 o          1 1A3      -0.589500
     23 NAP         -6.7090    -6.6160     3.6960 ns         1 1A3      -0.469100
     24 H1          -1.7420     0.4430    -0.5220 ha         1 1A3       0.142500
     25 H2           0.4070    -0.3340    -1.5050 ha         1 1A3       0.139000
     26 H3           2.1630    -1.3420    -0.0440 ha         1 1A3       0.138000
     27 H4           1.7560    -1.5780     2.4090 ha         1 1A3       0.139000
     28 H5          -0.4030    -0.8160     3.3980 ha         1 1A3       0.142500
     29 H6          -2.9980     1.0210     1.3770 h1         1 1A3       0.127200
     30 H7          -2.2390     0.9540     2.9910 h1         1 1A3       0.127200
     31 H8          -2.9620    -1.7600     0.5610 hn         1 1A3       0.459800
     32 H9          -4.4010    -3.4190     3.4910 ha         1 1A3       0.166000
     33 H10         -3.9270    -3.4030    -0.8480 ha         1 1A3       0.138000
     34 H11         -4.9900    -5.6330    -0.9510 ha         1 1A3       0.140000
     35 H12         -5.7630    -6.7720     1.1140 ha         1 1A3       0.140000
     36 H13         -4.0460    -5.1030     5.0700 h4         1 1A3       0.192000
     37 H14         -7.2990    -6.7500     2.9120 hn         1 1A3       0.346500
@<TRIPOS>BOND
     1     1     2 ar  
     2     1     6 ar  
     3     1    24 1   
     4     2     3 ar  
     5     2    25 1   
     6     3     4 ar  
     7     3    26 1   
     8     4     5 ar  
     9     4    27 1   
    10     5     6 ar  
    11     5    28 1   
    12     6     7 1   
    13     7     8 1   
    14     7    29 1   
    15     7    30 1   
    16     8     9 2   
    17     8    10 2   
    18     8    11 1   
    19    11    12 1   
    20    11    31 1   
    21    12    13 ar  
    22    12    14 ar  
    23    13    17 ar  
    24    13    32 1   
    25    14    15 ar  
    26    14    33 1   
    27    15    16 ar  
    28    15    34 1   
    29    16    17 ar  
    30    16    35 1   
    31    17    18 1   
    32    18    19 2   
    33    18    23 1   
    34    19    20 1   
    35    19    36 1   
    36    20    21 1   
    37    21    22 2   
    38    21    23 1   
    39    23    37 1   
@<TRIPOS>SUBSTRUCTURE
     1 1A3         1 TEMP              0 ****  ****    0 ROOT
