@<TRIPOS>MOLECULE
molecule
   37    39     1     0     0
SMALL
bcc


@<TRIPOS>ATOM
      1 CAH          0.0000     0.0000     0.0000 ca         1 1A3      -0.107500
      2 CAE          1.3820     0.0000     0.0000 ca         1 1A3      -0.124000
      3 CAD          2.0740     0.0000     1.1970 ca         1 1A3      -0.116000
      4 CAF          1.3830     0.0020     2.3940 ca         1 1A3      -0.124000
      5 CAI          0.0000     0.0030     2.3950 ca         1 1A3      -0.107500
      6 CAR         -0.6910     0.0020     1.1970 ca         1 1A3      -0.094300
      7 CAN         -2.1980     0.0020     1.1980 c3         1 1A3      -0.163300
      8 SAW         -2.8030    -1.7090     1.1990 s6         1 1A3       1.328900
      9 OAB         -2.4300    -2.3700    -0.0010 o          1 1A3      -0.620300
     10 OAC         -2.5860    -2.3130     2.4660 o          1 1A3      -0.620300
     11 NAO         -4.4490    -1.5640     1.0910 nu         1 1A3      -0.786500
     12 CAS         -5.1650    -0.9440     2.1180 ca         1 1A3       0.120600
     13 CAM         -5.6540     0.3410     1.9440 ca         1 1A3      -0.112000
     14 CAJ         -5.3900    -1.6170     3.3140 ca         1 1A3      -0.097000
     15 CAG         -6.0980    -1.0070     4.3330 ca         1 1A3      -0.117000
     16 CAK         -6.5840     0.2740     4.1700 ca         1 1A3      -0.114000
     17 CAT         -6.3680     0.9570     2.9710 ca         1 1A3      -0.051800
     18 CAU         -6.8890     2.3300     2.7950 cc         1 1A3       0.057400
     19 CAL         -6.6950     3.0050     1.6550 cd         1 1A3      -0.118400
     20 SAQ         -7.4810     4.5760     1.8980 ss         1 1A3      -0.193200
     21 CAV         -8.0240     4.2050     3.5460 c          1 1A3       0.711100
     22 OAA         -8.6580     4.9260     4.2950 o          1 1A3      -0.569500
     23 NAP         -7.5920     2.9550     3.7880 ns         1 1A3      -0.453100
     24 H1          -0.5420    -0.0010    -0.9380 ha         1 1A3       0.138500
     25 H2           1.9230    -0.0010    -0.9380 ha         1 1A3       0.135000
     26 H3           3.1570    -0.0010     1.1970 ha         1 1A3       0.133000
     27 H4           1.9240     0.0020     3.3320 ha         1 1A3       0.135000
     28 H5          -0.5410     0.0050     3.3330 ha         1 1A3       0.138500
     29 H6          -2.5590     0.5120     0.3130 h1         1 1A3       0.104700
     30 H7          -2.5580     0.5130     2.0820 h1         1 1A3       0.104700
     31 H8          -4.9340    -1.9450     0.3030 hn         1 1A3       0.467800
     32 H9          -5.4830     0.8650     1.0110 ha         1 1A3       0.146000
     33 H10         -5.0110    -2.6230     3.4470 ha         1 1A3       0.163000
     34 H11         -6.2690    -1.5350     5.2630 ha         1 1A3       0.145000
     35 H12         -7.1390     0.7490     4.9710 ha         1 1A3       0.130000
     36 H13         -6.7830     2.4970     0.7020 h4         1 1A3       0.190000
     37 H14         -7.7720     2.5030     4.6630 hn         1 1A3       0.341500
@<TRIPOS>BOND
     1     1     2 ar  
     2     1     6 ar  
     3     1    24 1   
     4     2     3 ar  
     5     2    25 1   
     6     3     4 ar  
     7     3    26 1   
     8     4    27 1   
     9     5     4 ar  
    10     5    28 1   
    11     6     5 ar  
    12     7     6 1   
    13     7    29 1   
    14     7    30 1   
    15     8     7 1   
    16     8     9 2   
    17     8    10 2   
    18    11     8 1   
    19    11    31 1   
    20    12    11 1   
    21    12    13 ar  
    22    13    32 1   
    23    14    12 ar  
    24    14    33 1   
    25    15    14 ar  
    26    15    16 ar  
    27    15    34 1   
    28    16    17 ar  
    29    16    35 1   
    30    17    13 ar  
    31    17    18 1   
    32    18    19 2   
    33    19    20 1   
    34    19    36 1   
    35    21    20 1   
    36    22    21 2   
    37    23    18 1   
    38    23    21 1   
    39    23    37 1   
@<TRIPOS>SUBSTRUCTURE
     1 1A3         1 TEMP              0 ****  ****    0 ROOT
