@<TRIPOS>MOLECULE
molecule
   31    33     1     0     0
SMALL
bcc


@<TRIPOS>ATOM
      1 CAI          0.0000     0.0000     0.0000 cc         1 1A4      -0.017000
      2 CAD          1.3840     0.0000     0.0000 cc         1 1A4      -0.187000
      3 CAF          1.9460     0.0000     1.2100 cd         1 1A4      -0.037100
      4 SAN          0.6920     0.0010     2.4430 ss         1 1A4      -0.038800
      5 CAS         -0.5630     0.0010     1.2100 cd         1 1A4      -0.278600
      6 SAU         -2.2960     0.0080     1.5240 sy         1 1A4       1.449200
      7 OAB         -2.4660     0.5510     2.8260 o          1 1A4      -0.626800
      8 OAC         -2.9120     0.5570     0.3670 o          1 1A4      -0.626800
      9 NAL         -2.7850    -1.5720     1.6090 nu         1 1A4      -0.770500
     10 CAP         -2.3160    -2.3940     2.6370 ca         1 1A4       0.140600
     11 CAK         -1.8740    -3.6770     2.3510 ca         1 1A4      -0.119000
     12 CAG         -2.2870    -1.9240     3.9440 ca         1 1A4      -0.148000
     13 CAE         -1.8240    -2.7340     4.9640 ca         1 1A4      -0.102000
     14 CAH         -1.3860    -4.0130     4.6900 ca         1 1A4      -0.130000
     15 CAQ         -1.4060    -4.4930     3.3800 ca         1 1A4      -0.041800
     16 CAR         -0.9320    -5.8620     3.0830 cc         1 1A4       0.057400
     17 CAJ         -0.9400    -6.3460     1.8340 cd         1 1A4      -0.116400
     18 SAO         -0.2960    -7.9930     1.9630 ss         1 1A4      -0.196200
     19 CAT         -0.0580    -7.9120     3.7180 c          1 1A4       0.710100
     20 OAA          0.3840    -8.7840     4.4450 o          1 1A4      -0.571500
     21 NAM         -0.4630    -6.6810     4.0740 ns         1 1A4      -0.452100
     22 H1          -0.5820    -0.0000    -0.9130 ha         1 1A4       0.163000
     23 H2           1.9670    -0.0010    -0.9130 ha         1 1A4       0.156000
     24 H3           3.0120    -0.0000     1.4030 h4         1 1A4       0.176000
     25 H4          -3.4470    -1.9270     0.9470 hn         1 1A4       0.468800
     26 H5          -1.8920    -4.0440     1.3320 ha         1 1A4       0.146000
     27 H6          -2.6290    -0.9200     4.1650 ha         1 1A4       0.188000
     28 H7          -1.8060    -2.3630     5.9820 ha         1 1A4       0.144000
     29 H8          -1.0240    -4.6450     5.4930 ha         1 1A4       0.128000
     30 H9          -0.6450    -5.7120     1.0060 h4         1 1A4       0.190000
     31 H10         -0.4300    -6.3780     5.0280 hn         1 1A4       0.341500
@<TRIPOS>BOND
     1     1     5 2
     2     1    22 1
     3     2     1 1
     4     2     3 2
     5     2    23 1
     6     3     4 1
     7     3    24 1
     8     5     4 1
     9     5     6 1
    10     6     7 2
    11     6     9 1
    12     8     6 2
    13     9    10 1
    14     9    25 1
    15    10    12 ar
    16    10    11 ar
    17    11    15 ar
    18    11    26 1
    19    12    13 ar
    20    12    27 1
    21    13    14 ar
    22    13    28 1
    23    14    29 1
    24    15    16 1
    25    15    14 ar
    26    16    17 2
    27    17    18 1
    28    17    30 1
    29    19    18 1
    30    20    19 2
    31    21    16 1
    32    21    19 1
    33    21    31 1
@<TRIPOS>SUBSTRUCTURE
     1 1A4         1 TEMP              0 ****  ****    0 ROOT
