@<TRIPOS>MOLECULE
1A4
   31    33     1     0     0
SMALL
bcc


@<TRIPOS>ATOM
      1 CAI         -0.0620     0.3050     0.0550 cc         1 1A4      -0.026000
      2 CAD          1.2930     0.6050    -0.1950 cc         1 1A4      -0.179000
      3 CAF          1.9430     0.9680     0.9830 cd         1 1A4      -0.179100
      4 SAN          0.9330     0.9360     2.2660 ss         1 1A4       0.288200
      5 CAS         -0.3980     0.4480     1.4140 cd         1 1A4      -0.519600
      6 SAU         -1.9530     0.1800     1.9140 sy         1 1A4       1.560200
      7 OAB         -2.2390     1.0220     3.0040 o          1 1A4      -0.650300
      8 OAC         -2.8180     0.2540     0.8030 o          1 1A4      -0.650300
      9 NAL         -1.9400    -1.3920     2.3820 nu         1 1A4      -0.770500
     10 CAP         -1.4390    -1.9550     3.5650 ca         1 1A4       0.172600
     11 CAK         -0.9540    -3.2820     3.5590 ca         1 1A4      -0.161000
     12 CAG         -1.4200    -1.2300     4.7790 ca         1 1A4      -0.168000
     13 CAE         -0.9120    -1.8180     5.9320 ca         1 1A4      -0.101000
     14 CAH         -0.4300    -3.1240     5.9210 ca         1 1A4      -0.130000
     15 CAQ         -0.4560    -3.8600     4.7300 ca         1 1A4      -0.024800
     16 CAR          0.0580    -5.2280     4.7260 cc         1 1A4       0.058400
     17 CAJ          1.1430    -5.6710     5.4390 cd         1 1A4      -0.191400
     18 SAO          1.4510    -7.3170     5.1930 ss         1 1A4      -0.062200
     19 CAT          0.0740    -7.4870     4.0900 c          1 1A4       0.678100
     20 OAA         -0.3180    -8.5020     3.5010 o          1 1A4      -0.586500
     21 NAM         -0.5460    -6.2370     3.9580 ns         1 1A4      -0.469100
     22 H1          -0.7820     0.0150    -0.7190 ha         1 1A4       0.178000
     23 H2           1.7590     0.5590    -1.1820 ha         1 1A4       0.166000
     24 H3           2.9970     1.2450     1.0390 h4         1 1A4       0.183000
     25 H4          -2.2630    -2.0790     1.7360 hn         1 1A4       0.452800
     26 H5          -0.9560    -3.8610     2.6220 ha         1 1A4       0.138000
     27 H6          -1.8160    -0.2000     4.8280 ha         1 1A4       0.177000
     28 H7          -0.9020    -1.2410     6.8700 ha         1 1A4       0.143000
     29 H8          -0.0390    -3.5820     6.8420 ha         1 1A4       0.144000
     30 H9           1.7590    -5.0530     6.0880 h4         1 1A4       0.184000
     31 H10         -1.3700    -6.0880     3.4310 hn         1 1A4       0.346500
@<TRIPOS>BOND
     1     1     2 1   
     2     1     5 2   
     3     1    22 1   
     4     2     3 2   
     5     2    23 1   
     6     3     4 1   
     7     3    24 1   
     8     4     5 1   
     9     5     6 1   
    10     6     7 2   
    11     6     8 2   
    12     6     9 1   
    13     9    10 1   
    14     9    25 1   
    15    10    11 ar  
    16    10    12 ar  
    17    11    15 ar  
    18    11    26 1   
    19    12    13 ar  
    20    12    27 1   
    21    13    14 ar  
    22    13    28 1   
    23    14    15 ar  
    24    14    29 1   
    25    15    16 1   
    26    16    17 2   
    27    16    21 1   
    28    17    18 1   
    29    17    30 1   
    30    18    19 1   
    31    19    20 2   
    32    19    21 1   
    33    21    31 1   
@<TRIPOS>SUBSTRUCTURE
     1 1A4         1 TEMP              0 ****  ****    0 ROOT
