@<TRIPOS>MOLECULE
molecule
   26    27     1     0     0
SMALL
bcc


@<TRIPOS>ATOM
      1 OAC          0.0000     0.0000     0.0000 o          1 1A5      -0.603500
      2 CAL          1.2150     0.0000     0.0000 c          1 1A5       0.835600
      3 OAJ          1.9450     0.0000     1.1210 os         1 1A5      -0.352900
      4 CAH          3.3610    -0.0020     0.7780 c3         1 1A5       0.120400
      5 CAI          3.3730    -0.0010    -0.7630 c3         1 1A5       0.035000
      6 NAO          1.9460    -0.0060    -1.1230 n          1 1A5      -0.411000
      7 CAN          1.4380    -0.0070    -2.4220 ca         1 1A5       0.187600
      8 CAF          2.3030     0.1090    -3.5060 ca         1 1A5      -0.173000
      9 CAD          1.8050     0.1020    -4.7890 ca         1 1A5      -0.033500
     10 CAM          0.4290    -0.0230    -5.0020 ca         1 1A5      -0.261600
     11 CAK         -0.1080    -0.0320    -6.3770 c          1 1A5       0.508700
     12 OAB          0.6470     0.0700    -7.3260 o          1 1A5      -0.434100
     13 NAA         -1.4340    -0.1520    -6.5820 nz         1 1A5      -0.677400
     14 CAE         -0.4360    -0.1410    -3.9110 ca         1 1A5      -0.033500
     15 CAG          0.0680    -0.1320    -2.6310 ca         1 1A5      -0.173000
     16 H1           3.7620    -0.9570     1.0970 h1         1 1A5       0.098200
     17 H2           3.7640     0.9520     1.0970 h1         1 1A5       0.098200
     18 H3           3.7810    -0.9550    -1.0760 h1         1 1A5       0.087200
     19 H4           3.7750     0.9540    -1.0760 h1         1 1A5       0.087200
     20 H5           3.3690     0.2060    -3.3390 ha         1 1A5       0.189500
     21 H6           2.4780     0.1930    -5.6330 ha         1 1A5       0.143000
     22 H7          -1.7550    -1.0160    -6.1920 hn         1 1A5       0.476467
     23 H8          -1.6230    -0.1390    -7.5650 hn         1 1A5       0.476467
     24 H9          -1.5030    -0.2370    -4.0730 ha         1 1A5       0.143000
     25 H10         -0.6020    -0.2230    -1.7840 ha         1 1A5       0.189500
     26 HAA3        -1.9100     0.6100    -6.1410 hn         1 1A5       0.476467
@<TRIPOS>BOND
     1    13    11 1
     2    11    12 2
     3    11    10 1
     4     9    10 ar
     5     9     8 ar
     6    10    14 ar
     7     8     7 ar
     8    14    15 ar
     9     7    15 ar
    10     7     6 1
    11     5     6 1
    12     5     4 1
    13     6     2 1
    14     4     3 1
    15     2     3 1
    16     2     1 2
    17     4    16 1
    18     4    17 1
    19     5    18 1
    20     5    19 1
    21     8    20 1
    22     9    21 1
    23    13    22 1
    24    13    23 1
    25    14    24 1
    26    15    25 1
    27    26    13 1
@<TRIPOS>SUBSTRUCTURE
     1 1A5         1 TEMP              0 ****  ****    0 ROOT
