@<TRIPOS>MOLECULE
1A5
   26    27     1     0     0
SMALL
bcc


@<TRIPOS>ATOM
      1 OAC          0.2580    -1.3590    -0.0670 o          1 1A5      -0.544500
      2 CAL          1.3150    -0.7380    -0.0710 c          1 1A5       0.834600
      3 OAJ          2.1980    -0.9130     0.9700 os         1 1A5      -0.357900
      4 CAH          3.3770    -0.0930     0.7740 c3         1 1A5       0.111400
      5 CAI          3.1490     0.6580    -0.5580 c3         1 1A5       0.048000
      6 NAO          1.8420     0.1950    -1.0110 n          1 1A5      -0.391000
      7 CAN          1.2370     0.6130    -2.1750 ca         1 1A5       0.204600
      8 CAF          1.8840     1.5580    -3.0280 ca         1 1A5      -0.196500
      9 CAD          1.2860     1.9840    -4.1960 ca         1 1A5      -0.014000
     10 CAM          0.0210     1.4990    -4.5790 ca         1 1A5      -0.272600
     11 CAK         -0.6810     1.8850    -5.7790 c          1 1A5       0.583700
     12 OAB         -1.7720     1.5300    -6.2060 o          1 1A5      -0.434100
     13 NAA          0.0080     2.8960    -6.6940 nz         1 1A5      -0.764400
     14 CAE         -0.6280     0.5630    -3.7410 ca         1 1A5      -0.014000
     15 CAG         -0.0420     0.1280    -2.5700 ca         1 1A5      -0.196500
     16 H1           3.4430     0.5950     1.6530 h1         1 1A5       0.095700
     17 H2           4.2520    -0.7880     0.7350 h1         1 1A5       0.095700
     18 H3           3.9400     0.3970    -1.3120 h1         1 1A5       0.078700
     19 H4           3.1380     1.7700    -0.4010 h1         1 1A5       0.078700
     20 H5           2.8750     1.9590    -2.7590 ha         1 1A5       0.183500
     21 H6           1.8330     2.7140    -4.8130 ha         1 1A5       0.149000
     22 H7           0.9030     2.5210    -7.0150 hn         1 1A5       0.463800
     23 H8           0.1730     3.7680    -6.1860 hn         1 1A5       0.463800
     24 H9          -1.6220     0.1740    -4.0310 ha         1 1A5       0.149000
     25 H10         -0.5810    -0.6060    -1.9390 ha         1 1A5       0.183500
     26 HAA3        -0.5920     3.0860    -7.5070 hn         1 1A5       0.463800
@<TRIPOS>BOND
     1     1     2 2   
     2     2     3 1   
     3     2     6 1   
     4     3     4 1   
     5     4     5 1   
     6     4    16 1   
     7     4    17 1   
     8     5     6 1   
     9     5    18 1   
    10     5    19 1   
    11     6     7 1   
    12     7     8 ar  
    13     7    15 ar  
    14     8     9 ar  
    15     8    20 1   
    16     9    10 ar  
    17     9    21 1   
    18    10    11 1   
    19    10    14 ar  
    20    11    12 2   
    21    11    13 1   
    22    13    22 1   
    23    13    23 1   
    24    13    26 1   
    25    14    15 ar  
    26    14    24 1   
    27    15    25 1   
@<TRIPOS>SUBSTRUCTURE
     1 1A5         1 TEMP              0 ****  ****    0 ROOT
