@<TRIPOS>MOLECULE
1A5
   26    27     1     0     0
SMALL
bcc


@<TRIPOS>ATOM
      1 OAC          0.0000     0.0000     0.0000 o          1 1A5      -0.652500
      2 CAL          1.2150     0.0000     0.0000 c          1 1A5       0.781600
      3 OAJ          1.9450     0.0000     1.1210 os         1 1A5      -0.351900
      4 CAH          3.3610    -0.0020     0.7780 c3         1 1A5       0.205400
      5 CAI          3.3730    -0.0010    -0.7630 c3         1 1A5      -0.025000
      6 NAO          1.9460    -0.0060    -1.1230 n          1 1A5      -0.031000
      7 CAN          1.4380    -0.0070    -2.4220 ca         1 1A5       0.058600
      8 CAF          2.3030     0.1090    -3.5060 ca         1 1A5      -0.159500
      9 CAD          1.8050     0.1020    -4.7890 ca         1 1A5       0.011000
     10 CAM          0.4290    -0.0230    -5.0020 ca         1 1A5      -0.288600
     11 CAK         -0.1080    -0.0320    -6.3770 c          1 1A5       0.359700
     12 OAB          0.6470     0.0700    -7.3260 o          1 1A5      -0.447100
     13 NAA         -1.4340    -0.1520    -6.5820 nz         1 1A5       0.201600
     14 CAE         -0.4360    -0.1410    -3.9110 ca         1 1A5       0.011000
     15 CAG          0.0680    -0.1320    -2.6310 ca         1 1A5      -0.159500
     16 H1           3.7620    -0.9570     1.0970 h1         1 1A5       0.048700
     17 H2           3.7640     0.9520     1.0970 h1         1 1A5       0.048700
     18 H3           3.7810    -0.9550    -1.0760 h1         1 1A5       0.053700
     19 H4           3.7750     0.9540    -1.0760 h1         1 1A5       0.053700
     20 H5           3.3690     0.2060    -3.3390 ha         1 1A5       0.164500
     21 H6           2.4780     0.1930    -5.6330 ha         1 1A5       0.107000
     22 H7          -1.7550    -1.0160    -6.1920 hn         1 1A5       0.245800
     23 H8          -1.6230    -0.1390    -7.5650 hn         1 1A5       0.245800
     24 H9          -1.5030    -0.2370    -4.0730 ha         1 1A5       0.107000
     25 H10         -0.6020    -0.2230    -1.7840 ha         1 1A5       0.164500
     26 HAA3        -1.9100     0.6100    -6.1410 hn         1 1A5       0.245800
@<TRIPOS>BOND
     1     1     2 2   
     2     2     3 1   
     3     2     6 1   
     4     3     4 1   
     5     4     5 1   
     6     4    16 1   
     7     4    17 1   
     8     5     6 1   
     9     5    18 1   
    10     5    19 1   
    11     6     7 1   
    12     7     8 ar  
    13     7    15 ar  
    14     8     9 ar  
    15     8    20 1   
    16     9    10 ar  
    17     9    21 1   
    18    10    11 1   
    19    10    14 ar  
    20    11    12 2   
    21    11    13 1   
    22    13    22 1   
    23    13    23 1   
    24    13    26 1   
    25    14    15 ar  
    26    14    24 1   
    27    15    25 1   
@<TRIPOS>SUBSTRUCTURE
     1 1A5         1 TEMP              0 ****  ****    0 ROOT
