@<TRIPOS>MOLECULE
1A6
   27    29     1     0     0
SMALL
bcc


@<TRIPOS>ATOM
      1 CAA         0.1490    0.0470   -0.1320 c3        1 1A6     -0.133400
      2 CAM         1.5950   -0.2210   -0.0420 cc        1 1A6      0.317600
      3 CAF         2.4330    0.1240    1.1100 cc        1 1A6     -0.332600
      4 NAJ         2.3690   -0.8100   -0.9780 nd        1 1A6     -0.353300
      5 OAK         3.6080   -0.8760   -0.5410 os        1 1A6     -0.117100
      6 CAN         3.6960   -0.3070    0.7580 cd        1 1A6      0.256000
      7 CAG         5.0160   -0.2880    1.3770 c3        1 1A6     -0.076600
      8 SAL         4.9760   -1.4790    2.7030 ss        1 1A6     -0.089300
      9 CAO         6.5180   -1.3440    3.3430 cc        1 1A6      0.196700
     10 NAH         7.0790   -0.2660    4.0050 nd        1 1A6     -0.294700
     11 NAI         8.2870   -0.5200    4.3930 nd        1 1A6     -0.081000
     12 CAP         8.6160   -1.8190    4.0180 cc        1 1A6     -0.072300
     13 NAQ         7.4950   -2.3630    3.3240 na        1 1A6     -0.033200
     14 CAE         7.5190   -3.6530    2.8480 cc        1 1A6     -0.065300
     15 CAC         8.6490   -4.4210    3.0300 cd        1 1A6     -0.153000
     16 CAB         9.7850   -3.9000    3.7130 cd        1 1A6     -0.114000
     17 CAD         9.7810   -2.6200    4.2060 cc        1 1A6     -0.083000
     18 H1         -0.2880   -0.3300   -1.0890 hc        1 1A6      0.059700
     19 H2         -0.3760   -0.4500    0.7220 hc        1 1A6      0.059700
     20 H3         -0.0290    1.1500   -0.0670 hc        1 1A6      0.059700
     21 H4          2.1010    0.6080    2.0220 ha        1 1A6      0.182000
     22 H5          5.2410    0.7320    1.7820 h1        1 1A6      0.100700
     23 H6          5.8090   -0.5470    0.6300 h1        1 1A6      0.100700
     24 H7          6.6100   -4.0060    2.3300 h4        1 1A6      0.185000
     25 H8          8.6720   -5.4490    2.6430 ha        1 1A6      0.159000
     26 H9         10.6660   -4.5470    3.8400 ha        1 1A6      0.151000
     27 H10        10.6340   -2.1800    4.7430 ha        1 1A6      0.171000
@<TRIPOS>BOND
     1    1    2 1   
     2    1   18 1   
     3    1   19 1   
     4    1   20 1   
     5    2    3 1   
     6    2    4 2   
     7    3    6 2   
     8    3   21 1   
     9    4    5 1   
    10    5    6 1   
    11    6    7 1   
    12    7    8 1   
    13    7   22 1   
    14    7   23 1   
    15    8    9 1   
    16    9   10 2   
    17    9   13 1   
    18   10   11 1   
    19   11   12 2   
    20   12   13 1   
    21   12   17 1   
    22   13   14 1   
    23   14   15 2   
    24   14   24 1   
    25   15   16 1   
    26   15   25 1   
    27   16   17 2   
    28   16   26 1   
    29   17   27 1   
@<TRIPOS>SUBSTRUCTURE
     1 1A6         1 TEMP              0 ****  ****    0 ROOT
