@<TRIPOS>MOLECULE
1A7
   19    20     1     0     0
SMALL
bcc


@<TRIPOS>ATOM
      1 FAB          0.0000     0.0000     0.0000 f          1 1A7      -0.118900
      2 CAJ          1.3510     0.0000     0.0000 ca         1 1A7       0.133900
      3 CAE          2.0440     0.0000     1.1960 ca         1 1A7      -0.126000
      4 CAC          3.4270     0.0000     1.1970 ca         1 1A7      -0.064000
      5 CAD          4.1260     0.0000     0.0030 ca         1 1A7      -0.102000
      6 CAF          3.4470     0.0000    -1.1990 ca         1 1A7      -0.078000
      7 CAL          2.0520    -0.0060    -1.2090 ca         1 1A7      -0.075800
      8 CAK          1.3190    -0.0060    -2.4940 cc         1 1A7      -0.102600
      9 CAG         -0.0200    -0.0110    -2.5280 cd         1 1A7      -0.042400
     10 SAI         -0.4460    -0.0080    -4.2500 ss         1 1A7      -0.286200
     11 CAM          1.2380    -0.0000    -4.8080 c          1 1A7       0.644100
     12 OAA          1.6340     0.0040    -5.9610 o          1 1A7      -0.603500
     13 NAH          1.9820     0.0060    -3.6900 ns         1 1A7       0.001900
     14 H1           1.5030    -0.0000     2.1340 ha         1 1A7       0.124000
     15 H2           3.9660     0.0000     2.1370 ha         1 1A7       0.110000
     16 H3           5.2090     0.0030     0.0110 ha         1 1A7       0.111000
     17 H4           3.9960    -0.0020    -2.1330 ha         1 1A7       0.108000
     18 H5          -0.5780    -0.6270    -1.8340 h4         1 1A7       0.184000
     19 H6           2.9820     0.0120    -3.7300 hn         1 1A7       0.181500
@<TRIPOS>BOND
     1     1     2 1   
     2     2     3 ar  
     3     2     7 ar  
     4     3     4 ar  
     5     3    14 1   
     6     4     5 ar  
     7     4    15 1   
     8     5     6 ar  
     9     5    16 1   
    10     6     7 ar  
    11     6    17 1   
    12     7     8 1   
    13     8     9 2   
    14     8    13 1   
    15     9    10 1   
    16     9    18 1   
    17    10    11 1   
    18    11    12 2   
    19    11    13 1   
    20    13    19 1   
@<TRIPOS>SUBSTRUCTURE
     1 1A7         1 TEMP              0 ****  ****    0 ROOT
