@<TRIPOS>MOLECULE
1A7
   19    20     1     0     0
SMALL
bcc


@<TRIPOS>ATOM
      1 FAB          0.0140    -0.4150    -0.1790 f          1 1A7      -0.130900
      2 CAJ          1.3480    -0.1970    -0.1150 ca         1 1A7       0.149900
      3 CAE          1.9800    -0.2350     1.1450 ca         1 1A7      -0.165000
      4 CAC          3.3490    -0.0160     1.2400 ca         1 1A7      -0.094000
      5 CAD          4.1000     0.2450     0.0930 ca         1 1A7      -0.142000
      6 CAF          3.4830     0.2840    -1.1530 ca         1 1A7      -0.095000
      7 CAL          2.1040     0.0630    -1.2820 ca         1 1A7      -0.080800
      8 CAK          1.4700     0.1170    -2.5950 cc         1 1A7       0.052400
      9 CAG          0.2490     0.6700    -2.8820 cd         1 1A7      -0.175400
     10 SAI         -0.1430     0.5660    -4.5240 ss         1 1A7      -0.057200
     11 CAM          1.3720    -0.2700    -4.9090 c          1 1A7       0.677100
     12 OAA          1.7680    -0.6770    -6.0090 o          1 1A7      -0.588500
     13 NAH          2.1150    -0.4070    -3.7290 ns         1 1A7      -0.470100
     14 H1           1.3760    -0.4410     2.0410 ha         1 1A7       0.154000
     15 H2           3.8390    -0.0470     2.2250 ha         1 1A7       0.143000
     16 H3           5.1830     0.4240     0.1730 ha         1 1A7       0.143000
     17 H4           4.0860     0.5070    -2.0470 ha         1 1A7       0.143000
     18 H5          -0.4170     1.1220    -2.1470 h4         1 1A7       0.191000
     19 H6           2.9800    -0.8860    -3.6810 hn         1 1A7       0.345500
@<TRIPOS>BOND
     1     1     2 1   
     2     2     3 ar  
     3     2     7 ar  
     4     3     4 ar  
     5     3    14 1   
     6     4     5 ar  
     7     4    15 1   
     8     5     6 ar  
     9     5    16 1   
    10     6     7 ar  
    11     6    17 1   
    12     7     8 1   
    13     8     9 2   
    14     8    13 1   
    15     9    10 1   
    16     9    18 1   
    17    10    11 1   
    18    11    12 2   
    19    11    13 1   
    20    13    19 1   
@<TRIPOS>SUBSTRUCTURE
     1 1A7         1 TEMP              0 ****  ****    0 ROOT
