@<TRIPOS>MOLECULE
molecule
   19    20     1     0     0
SMALL
bcc


@<TRIPOS>ATOM
      1 FAB          0.0000     0.0000     0.0000 f          1 1A7      -0.126900
      2 CAJ          1.3510     0.0000     0.0000 ca         1 1A7       0.155900
      3 CAE          2.0440     0.0000     1.1960 ca         1 1A7      -0.161000
      4 CAC          3.4270     0.0000     1.1970 ca         1 1A7      -0.093000
      5 CAD          4.1260     0.0000     0.0030 ca         1 1A7      -0.136000
      6 CAF          3.4470     0.0000    -1.1990 ca         1 1A7      -0.097000
      7 CAL          2.0520    -0.0060    -1.2090 ca         1 1A7      -0.085800
      8 CAK          1.3190    -0.0060    -2.4940 cc         1 1A7       0.043400
      9 CAG         -0.0200    -0.0110    -2.5280 cd         1 1A7      -0.095400
     10 SAI         -0.4460    -0.0080    -4.2500 ss         1 1A7      -0.199200
     11 CAM          1.2380    -0.0000    -4.8080 c          1 1A7       0.710100
     12 OAA          1.6340     0.0040    -5.9610 o          1 1A7      -0.575500
     13 NAH          1.9820     0.0060    -3.6900 ns         1 1A7      -0.452100
     14 H1           1.5030    -0.0000     2.1340 ha         1 1A7       0.152000
     15 H2           3.9660     0.0000     2.1370 ha         1 1A7       0.142000
     16 H3           5.2090     0.0030     0.0110 ha         1 1A7       0.141000
     17 H4           3.9960    -0.0020    -2.1330 ha         1 1A7       0.134000
     18 H5          -0.5780    -0.6270    -1.8340 h4         1 1A7       0.205000
     19 H6           2.9820     0.0120    -3.7300 hn         1 1A7       0.338500
@<TRIPOS>BOND
     1     5     4 ar  
     2     5     6 ar  
     3     4     3 ar  
     4     6     7 ar  
     5     3     2 ar  
     6     7     2 ar  
     7     7     8 1   
     8     2     1 1   
     9    13     8 1   
    10    13    11 1   
    11     8     9 2   
    12    12    11 2   
    13    11    10 1   
    14     9    10 1   
    15     3    14 1   
    16     4    15 1   
    17     5    16 1   
    18     6    17 1   
    19     9    18 1   
    20    13    19 1   
@<TRIPOS>SUBSTRUCTURE
     1 1A7         1 TEMP              0 ****  ****    0 ROOT
