@<TRIPOS>MOLECULE
1A8
   44    46     1     0     0
SMALL
bcc


@<TRIPOS>ATOM
      1 CAA          0.0920    -0.7650     1.6850 c3         1 1A8      -0.104100
      2 CAM          0.6450    -0.0850     0.4590 c3         1 1A8      -0.079400
      3 CAN          2.0070     0.5400     0.6760 c3         1 1A8      -0.154400
      4 CAT          1.9230     1.8600     1.4280 c          1 1A8       0.668100
      5 OAB          1.9880     2.9430     0.8220 o          1 1A8      -0.589100
      6 NAO          1.7920     1.7730     2.8090 ns         1 1A8      -0.474100
      7 CAU          1.7020     2.8280     3.7280 ca         1 1A8       0.103600
      8 CAJ          1.7660     2.5090     5.1050 ca         1 1A8      -0.231000
      9 CAK          1.5370     4.1720     3.3380 ca         1 1A8      -0.160000
     10 CAW          1.4500     5.1720     4.3110 ca         1 1A8       0.003200
     11 CAX          1.2900     6.5580     3.8710 cc         1 1A8       0.051400
     12 CAI          1.8480     7.1030     2.7420 cd         1 1A8      -0.180400
     13 SAS          1.4530     8.7370     2.5480 ss         1 1A8      -0.061200
     14 CAZ          0.4730     8.7520     4.0250 c          1 1A8       0.677100
     15 OAC         -0.1610     9.6950     4.5170 o          1 1A8      -0.589500
     16 NAQ          0.5230     7.4780     4.6040 ns         1 1A8      -0.469100
     17 CAL          1.5300     4.8650     5.6700 ca         1 1A8      -0.189000
     18 CAV          1.6920     3.5220     6.0790 ca         1 1A8       0.196600
     19 NAP          1.7650     3.2180     7.4470 nu         1 1A8      -0.772500
     20 SBA          2.5960     2.0140     8.1890 sy         1 1A8       1.560200
     21 OAD          2.5390     0.8300     7.4300 o          1 1A8      -0.652800
     22 OAE          2.1080     1.9480     9.5100 o          1 1A8      -0.652800
     23 CAY          4.1540     2.5740     8.2090 cc         1 1A8      -0.520600
     24 SAR          5.3420     2.4830     7.0620 ss         1 1A8       0.287200
     25 CAG          6.4850     3.2330     7.9560 cc         1 1A8      -0.177100
     26 CAF          6.0050     3.5950     9.2120 cd         1 1A8      -0.179000
     27 CAH          4.6540     3.2120     9.3580 cd         1 1A8      -0.026000
     28 H1           0.8670    -1.4060     2.1720 hc         1 1A8       0.039367
     29 H2          -0.2740    -0.0200     2.4320 hc         1 1A8       0.039367
     30 H3          -0.7720    -1.4150     1.4020 hc         1 1A8       0.039367
     31 H4           0.7440    -0.8430    -0.3650 hc         1 1A8       0.055700
     32 H5          -0.0750     0.6980     0.1000 hc         1 1A8       0.055700
     33 H6           2.4710     0.7720    -0.3210 hc         1 1A8       0.072700
     34 H7           2.6850    -0.1760     1.2090 hc         1 1A8       0.072700
     35 H8           1.7440     0.8560     3.2000 hn         1 1A8       0.326500
     36 H9           1.8670     1.4530     5.4180 ha         1 1A8       0.173000
     37 H10          1.4700     4.4480     2.2720 ha         1 1A8       0.183000
     38 H11          2.4790     6.5660     2.0340 h4         1 1A8       0.192000
     39 H12          1.4810     5.6660     6.4220 ha         1 1A8       0.139000
     40 H13          1.2960     3.8900     8.0150 hn         1 1A8       0.454800
     41 H14          7.5030     3.4250     7.6120 h4         1 1A8       0.183000
     42 H15          6.5850     4.1020     9.9860 ha         1 1A8       0.166000
     43 H16          4.0630     3.3730    10.2680 ha         1 1A8       0.179000
     44 H17          0.0090     7.2230     5.4110 hn         1 1A8       0.345500
@<TRIPOS>BOND
     1     1     2 1   
     2     1    28 1   
     3     1    29 1   
     4     1    30 1   
     5     2     3 1   
     6     2    31 1   
     7     2    32 1   
     8     3     4 1   
     9     3    33 1   
    10     3    34 1   
    11     4     5 2   
    12     4     6 1   
    13     6     7 1   
    14     6    35 1   
    15     7     8 ar  
    16     7     9 ar  
    17     8    18 ar  
    18     8    36 1   
    19     9    10 ar  
    20     9    37 1   
    21    10    11 1   
    22    10    17 ar  
    23    11    12 2   
    24    11    16 1   
    25    12    13 1   
    26    12    38 1   
    27    13    14 1   
    28    14    15 2   
    29    14    16 1   
    30    16    44 1   
    31    17    18 ar  
    32    17    39 1   
    33    18    19 1   
    34    19    20 1   
    35    19    40 1   
    36    20    21 2   
    37    20    22 2   
    38    20    23 1   
    39    23    24 1   
    40    23    27 2   
    41    24    25 1   
    42    25    26 2   
    43    25    41 1   
    44    26    27 1   
    45    26    42 1   
    46    27    43 1   
@<TRIPOS>SUBSTRUCTURE
     1 1A8         1 TEMP              0 ****  ****    0 ROOT
