@<TRIPOS>MOLECULE
molecule
   44    46     1     0     0
SMALL
bcc


@<TRIPOS>ATOM
      1 CAA          0.0000     0.0000     0.0000 c3         1 1A8      -0.095100
      2 CAM          1.5300     0.0000     0.0000 c3         1 1A8      -0.069400
      3 CAN          2.0400     0.0000     1.4430 c3         1 1A8      -0.155400
      4 CAT          3.5460    -0.0010     1.4430 c          1 1A8       0.657100
      5 OAB          4.1530    -0.0010     0.3930 o          1 1A8      -0.573100
      6 NAO          4.2200    -0.0010     2.6100 ns         1 1A8      -0.485100
      7 CAU          5.6170    -0.0990     2.6130 ca         1 1A8       0.084600
      8 CAJ          6.3560     0.5070     1.6060 ca         1 1A8      -0.152000
      9 CAK          6.2590    -0.7950     3.6240 ca         1 1A8      -0.168000
     10 CAW          7.6510    -0.8930     3.6260 ca         1 1A8      -0.025800
     11 CAX          8.3410    -1.6370     4.7030 cc         1 1A8       0.058400
     12 CAI          9.6760    -1.7440     4.7270 cd         1 1A8      -0.112400
     13 SAS         10.0430    -2.7030     6.1730 ss         1 1A8      -0.197200
     14 CAZ          8.3450    -2.8940     6.6490 c          1 1A8       0.710100
     15 OAC          7.9110    -3.4890     7.6190 o          1 1A8      -0.572500
     16 NAQ          7.6390    -2.2350     5.7130 ns         1 1A8      -0.453100
     17 CAL          8.3900    -0.2880     2.6090 ca         1 1A8      -0.138000
     18 CAV          7.7410     0.4120     1.6040 ca         1 1A8       0.156600
     19 NAP          8.4810     1.0230     0.5890 nu         1 1A8      -0.766500
     20 SBA          8.1210     2.5690     0.1170 sy         1 1A8       1.444200
     21 OAD          9.0600     2.9100    -0.8930 o          1 1A8      -0.620800
     22 OAE          6.7140     2.6090    -0.0840 o          1 1A8      -0.620800
     23 CAY          8.4580     3.6250     1.4870 cd         1 1A8      -0.274600
     24 SAR          7.3020     4.0590     2.7400 ss         1 1A8      -0.044800
     25 CAG          8.5090     5.0490     3.5510 cd         1 1A8      -0.039100
     26 CAF          9.6560     5.0030     2.8710 cc         1 1A8      -0.185000
     27 CAH          9.6290     4.2130     1.7350 cc         1 1A8      -0.019000
     28 H1          -0.3610    -0.8860     0.5080 hc         1 1A8       0.034700
     29 H2          -0.3610     0.0030    -1.0210 hc         1 1A8       0.034700
     30 H3          -0.3610     0.8830     0.5130 hc         1 1A8       0.034700
     31 H4           1.8910     0.8850    -0.5110 hc         1 1A8       0.061200
     32 H5           1.8910    -0.8850    -0.5110 hc         1 1A8       0.061200
     33 H6           1.6780    -0.8840     1.9540 hc         1 1A8       0.061200
     34 H7           1.6790     0.8850     1.9540 hc         1 1A8       0.061200
     35 H8           3.7230     0.0770     3.4750 hn         1 1A8       0.324500
     36 H9           5.8500     1.0550     0.8200 ha         1 1A8       0.219000
     37 H10          5.6860    -1.2130     4.4430 ha         1 1A8       0.126000
     38 H11         10.2930    -0.8910     4.4730 h4         1 1A8       0.191000
     39 H12          9.4710    -0.3620     2.6080 ha         1 1A8       0.145000
     40 H13          9.2130     0.5180     0.1300 hn         1 1A8       0.469800
     41 H14          8.3450     5.6120     4.4620 h4         1 1A8       0.175000
     42 H15         10.5420     5.5390     3.1880 ha         1 1A8       0.155000
     43 H16         10.4910     4.0880     1.0920 ha         1 1A8       0.163000
     44 H17          6.6400    -2.1890     5.7520 hn         1 1A8       0.339500
@<TRIPOS>BOND
     1    26    27 1   
     2    26    25 2   
     3    27    23 2   
     4    22    20 2   
     5    25    24 1   
     6    23    20 1   
     7    23    24 1   
     8    21    20 2   
     9    20    19 1   
    10    19    18 1   
    11    18     8 ar  
    12    18    17 ar  
    13     8     7 ar  
    14    17    10 ar  
    15     7     6 1   
    16     7     9 ar  
    17    10     9 ar  
    18    10    11 1   
    19     6     4 1   
    20    16    11 1   
    21    16    14 1   
    22    15    14 2   
    23    11    12 2   
    24    14    13 1   
    25     4     3 1   
    26     4     5 2   
    27     3     2 1   
    28    12    13 1   
    29     2     1 1   
    30     1    28 1   
    31     1    29 1   
    32     1    30 1   
    33     2    31 1   
    34     2    32 1   
    35     3    33 1   
    36     3    34 1   
    37     6    35 1   
    38     8    36 1   
    39     9    37 1   
    40    12    38 1   
    41    17    39 1   
    42    19    40 1   
    43    25    41 1   
    44    26    42 1   
    45    27    43 1   
    46    16    44 1   
@<TRIPOS>SUBSTRUCTURE
     1 1A8         1 TEMP              0 ****  ****    0 ROOT
