@<TRIPOS>MOLECULE
1A8
   44    46     1     0     0
SMALL
bcc


@<TRIPOS>ATOM
      1 CAA          0.0000     0.0000     0.0000 c3         1 1A8       0.003900
      2 CAM          1.5300     0.0000     0.0000 c3         1 1A8      -0.015400
      3 CAN          2.0400     0.0000     1.4430 c3         1 1A8      -0.097400
      4 CAT          3.5460    -0.0010     1.4430 c          1 1A8       0.561100
      5 OAB          4.1530    -0.0010     0.3930 o          1 1A8      -0.612100
      6 NAO          4.2200    -0.0010     2.6100 ns         1 1A8      -0.046100
      7 CAU          5.6170    -0.0990     2.6130 ca         1 1A8      -0.050400
      8 CAJ          6.3560     0.5070     1.6060 ca         1 1A8      -0.142000
      9 CAK          6.2590    -0.7950     3.6240 ca         1 1A8      -0.153000
     10 CAW          7.6510    -0.8930     3.6260 ca         1 1A8      -0.021800
     11 CAX          8.3410    -1.6370     4.7030 cc         1 1A8      -0.086600
     12 CAI          9.6760    -1.7440     4.7270 cd         1 1A8      -0.057400
     13 SAS         10.0430    -2.7030     6.1730 ss         1 1A8      -0.289200
     14 CAZ          8.3450    -2.8940     6.6490 c          1 1A8       0.646100
     15 OAC          7.9110    -3.4890     7.6190 o          1 1A8      -0.601500
     16 NAQ          7.6390    -2.2350     5.7130 ns         1 1A8      -0.000100
     17 CAL          8.3900    -0.2880     2.6090 ca         1 1A8      -0.125000
     18 CAV          7.7410     0.4120     1.6040 ca         1 1A8       0.078600
     19 NAP          8.4810     1.0230     0.5890 nu         1 1A8      -0.389500
     20 SBA          8.1210     2.5690     0.1170 sy         1 1A8       1.061200
     21 OAD          9.0600     2.9100    -0.8930 o          1 1A8      -0.567800
     22 OAE          6.7140     2.6090    -0.0840 o          1 1A8      -0.567800
     23 CAY          8.4580     3.6250     1.4870 cc         1 1A8      -0.057600
     24 SAR          7.3020     4.0590     2.7400 ss         1 1A8      -0.196800
     25 CAG          8.5090     5.0490     3.5510 cc         1 1A8       0.048900
     26 CAF          9.6560     5.0030     2.8710 cd         1 1A8      -0.163000
     27 CAH          9.6290     4.2130     1.7350 cd         1 1A8       0.014000
     28 H1          -0.3610    -0.8860     0.5080 hc         1 1A8       0.000033
     29 H2          -0.3610     0.0030    -1.0210 hc         1 1A8       0.000033
     30 H3          -0.3610     0.8830     0.5130 hc         1 1A8       0.000033
     31 H4           1.8910     0.8850    -0.5110 hc         1 1A8       0.030200
     32 H5           1.8910    -0.8850    -0.5110 hc         1 1A8       0.030200
     33 H6           1.6780    -0.8840     1.9540 hc         1 1A8       0.027700
     34 H7           1.6790     0.8850     1.9540 hc         1 1A8       0.027700
     35 H8           3.7230     0.0770     3.4750 hn         1 1A8       0.167500
     36 H9           5.8500     1.0550     0.8200 ha         1 1A8       0.210000
     37 H10          5.6860    -1.2130     4.4430 ha         1 1A8       0.105000
     38 H11         10.2930    -0.8910     4.4730 h4         1 1A8       0.168000
     39 H12          9.4710    -0.3620     2.6080 ha         1 1A8       0.121000
     40 H13          9.2130     0.5180     0.1300 hn         1 1A8       0.350800
     41 H14          8.3450     5.6120     4.4620 h4         1 1A8       0.148000
     42 H15         10.5420     5.5390     3.1880 ha         1 1A8       0.127000
     43 H16         10.4910     4.0880     1.0920 ha         1 1A8       0.132000
     44 H17          6.6400    -2.1890     5.7520 hn         1 1A8       0.182500
@<TRIPOS>BOND
     1     1     2 1   
     2     1    28 1   
     3     1    29 1   
     4     1    30 1   
     5     2     3 1   
     6     2    31 1   
     7     2    32 1   
     8     3     4 1   
     9     3    33 1   
    10     3    34 1   
    11     4     5 2   
    12     4     6 1   
    13     6     7 1   
    14     6    35 1   
    15     7     8 ar  
    16     7     9 ar  
    17     8    18 ar  
    18     8    36 1   
    19     9    10 ar  
    20     9    37 1   
    21    10    11 1   
    22    10    17 ar  
    23    11    12 2   
    24    11    16 1   
    25    12    13 1   
    26    12    38 1   
    27    13    14 1   
    28    14    15 2   
    29    14    16 1   
    30    16    44 1   
    31    17    18 ar  
    32    17    39 1   
    33    18    19 1   
    34    19    20 1   
    35    19    40 1   
    36    20    21 2   
    37    20    22 2   
    38    20    23 1   
    39    23    24 1   
    40    23    27 2   
    41    24    25 1   
    42    25    26 2   
    43    25    41 1   
    44    26    27 1   
    45    26    42 1   
    46    27    43 1   
@<TRIPOS>SUBSTRUCTURE
     1 1A8         1 TEMP              0 ****  ****    0 ROOT
