@<TRIPOS>MOLECULE
1A9
   57    60     1     0     0
SMALL
bcc


@<TRIPOS>ATOM
      1 CAP        -0.0170    0.3230    0.3800 c3        1 1A9     -0.073900
      2 CAM         1.4660    0.5950    0.2290 c3        1 1A9     -0.076400
      3 CAL         2.2510    0.0270    1.3930 c3        1 1A9     -0.077400
      4 CAN         1.9750   -1.4520    1.5680 c3        1 1A9     -0.076400
      5 CAQ         0.4930   -1.7250    1.7150 c3        1 1A9     -0.073900
      6 CBE        -0.2930   -1.1670    0.5340 c3        1 1A9     -0.064700
      7 CAR        -1.7760   -1.4390    0.7310 c3        1 1A9     -0.072400
      8 CAO        -2.5530   -1.2860   -0.5600 c3        1 1A9     -0.151400
      9 CAX        -4.0240   -1.6060   -0.3440 c         1 1A9      0.667100
     10 OAA        -4.4740   -1.9350    0.7660 o         1 1A9     -0.586100
     11 NAS        -4.8250   -1.5170   -1.4810 n         1 1A9     -0.478100
     12 CAY        -6.2150   -1.6960   -1.5570 ca        1 1A9      0.103600
     13 CAI        -6.8720   -1.2680   -2.7350 ca        1 1A9     -0.228000
     14 CAJ        -6.9650   -2.2920   -0.5240 ca        1 1A9     -0.168000
     15 CBA        -8.3480   -2.4360   -0.6650 ca        1 1A9      0.000200
     16 CBB        -9.1400   -3.0430    0.4040 cc        1 1A9      0.061400
     17 CAH       -10.2450   -3.8370    0.2220 cd        1 1A9     -0.194400
     18 SAW       -10.9120   -4.3610    1.6860 ss        1 1A9     -0.071200
     19 CBD        -9.6870   -3.5020    2.6380 c         1 1A9      0.681100
     20 OAB        -9.5730   -3.4510    3.8700 o         1 1A9     -0.584500
     21 NAU        -8.8190   -2.8470    1.7560 n         1 1A9     -0.464100
     22 CAK        -8.9990   -2.0210   -1.8280 ca        1 1A9     -0.176000
     23 CAZ        -8.2600   -1.4420   -2.8820 ca        1 1A9      0.193600
     24 NAT        -8.9210   -1.0280   -4.0500 nh        1 1A9     -0.773500
     25 SBF        -8.3700   -1.0270   -5.5920 sy        1 1A9      1.560200
     26 OAC        -9.2690   -0.2390   -6.3400 o         1 1A9     -0.652800
     27 OAD        -7.0120   -0.6560   -5.6350 o         1 1A9     -0.652800
     28 CBC        -8.5140   -2.6100   -6.0570 cc        1 1A9     -0.518600
     29 SAV        -7.4790   -3.8850   -5.8590 ss        1 1A9      0.285200
     30 CAF        -8.4110   -4.9720   -6.6460 cc        1 1A9     -0.178100
     31 CAE        -9.5890   -4.3970   -7.1180 cd        1 1A9     -0.179000
     32 CAG        -9.6480   -3.0290   -6.7770 cd        1 1A9     -0.027000
     33 H1         -0.5600    0.7160   -0.5180 hc        1 1A9      0.040700
     34 H2         -0.4090    0.8690    1.2780 hc        1 1A9      0.040700
     35 H3          1.6370    1.7010    0.1640 hc        1 1A9      0.039950
     36 H4          1.8340    0.1400   -0.7280 hc        1 1A9      0.039950
     37 H5          1.9730    0.5720    2.3330 hc        1 1A9      0.040200
     38 H6          3.3470    0.1870    1.2210 hc        1 1A9      0.040200
     39 H7          2.3720   -2.0140    0.6820 hc        1 1A9      0.039950
     40 H8          0.1150   -1.2600    2.6630 hc        1 1A9      0.040700
     41 H9          0.0540   -1.6910   -0.4000 hc        1 1A9      0.045700
     42 H10        -1.9190   -2.4830    1.1190 hc        1 1A9      0.061200
     43 H11        -2.1960   -0.7450    1.5050 hc        1 1A9      0.061200
     44 H12        -2.4600   -0.2340   -0.9410 hc        1 1A9      0.068200
     45 H13        -2.1360   -1.9750   -1.3410 hc        1 1A9      0.068200
     46 H14        -4.3920   -1.1790   -2.3130 hn        1 1A9      0.322500
     47 H15        -6.2900   -0.7860   -3.5420 ha        1 1A9      0.173000
     48 H16        -6.4620   -2.6530    0.3880 ha        1 1A9      0.177000
     49 H17       -10.6590   -4.1210   -0.7420 h4        1 1A9      0.182000
     50 H18       -10.0910   -2.1410   -1.9090 ha        1 1A9      0.144000
     51 H19        -9.8710   -0.7750   -3.8820 hn        1 1A9      0.455800
     52 H20        -8.1420   -6.0200   -6.7880 h4        1 1A9      0.183000
     53 H21       -10.3650   -4.9220   -7.6780 ha        1 1A9      0.166000
     54 H22       -10.4700   -2.3590   -7.0560 ha        1 1A9      0.179000
     55 H23         2.5150   -1.8310    2.4750 hc        1 1A9      0.039950
     56 H24         0.3210   -2.8300    1.7890 hc        1 1A9      0.040700
     57 H25        -8.0420   -2.3050    2.0500 hn        1 1A9      0.355500
@<TRIPOS>BOND
     1    1    2 1
     2    1    6 1
     3    1   33 1
     4    1   34 1
     5    2    3 1
     6    2   35 1
     7    2   36 1
     8    3    4 1
     9    3   37 1
    10    3   38 1
    11    4    5 1
    12    4   39 1
    13    4   55 1
    14    5    6 1
    15    5   40 1
    16    5   56 1
    17    6    7 1
    18    6   41 1
    19    7    8 1
    20    7   42 1
    21    7   43 1
    22    8    9 1
    23    8   44 1
    24    8   45 1
    25    9   10 2
    26    9   11 1
    27   11   12 1
    28   11   46 1
    29   12   13 ar
    30   12   14 ar
    31   13   23 ar
    32   13   47 1
    33   14   15 ar
    34   14   48 1
    35   15   16 1
    36   15   22 ar
    37   16   17 2
    38   16   21 1
    39   17   18 1
    40   17   49 1
    41   18   19 1
    42   19   20 2
    43   19   21 1
    44   21   57 1
    45   22   23 ar
    46   22   50 1
    47   23   24 1
    48   24   25 1
    49   24   51 1
    50   25   26 2
    51   25   27 2
    52   25   28 1
    53   28   29 1
    54   28   32 2
    55   29   30 1
    56   30   31 2
    57   30   52 1
    58   31   32 1
    59   31   53 1
    60   32   54 1
@<TRIPOS>SUBSTRUCTURE
     1 1A9         1 TEMP              0 ****  ****    0 ROOT
