@<TRIPOS>MOLECULE
1A9
   57    60     1     0     0
SMALL
bcc


@<TRIPOS>ATOM
      1 CAP          0.2290     0.4690     0.6460 c3         1 1A9      -0.073400
      2 CAM          1.7330     0.2880     0.7260 c3         1 1A9      -0.075400
      3 CAL          2.1260    -0.8500     1.6500 c3         1 1A9      -0.075400
      4 CAN          1.1020    -1.0620     2.7450 c3         1 1A9      -0.075400
      5 CAQ         -0.2550    -1.4460     2.1860 c3         1 1A9      -0.073400
      6 CBE         -0.4940    -0.8590     0.8000 c3         1 1A9      -0.063700
      7 CAR         -1.9750    -0.7550     0.4790 c3         1 1A9      -0.069400
      8 CAO         -2.6730     0.3880     1.1840 c3         1 1A9      -0.151400
      9 CAX         -4.1740     0.3340     0.9430 c          1 1A9       0.666100
     10 OAA         -4.7050    -0.5650     0.2690 o          1 1A9      -0.586100
     11 NAS         -4.9070     1.3610     1.5320 ns         1 1A9      -0.479100
     12 CAY         -6.2940     1.5600     1.4680 ca         1 1A9       0.103600
     13 CAI         -6.8030     2.8110     1.8870 ca         1 1A9      -0.231000
     14 CAJ         -7.1880     0.5620     1.0330 ca         1 1A9      -0.157000
     15 CBA         -8.5620     0.8210     1.0110 ca         1 1A9       0.002200
     16 CBB         -9.4610    -0.2330     0.5420 cc         1 1A9       0.051400
     17 CAH         -9.1780    -1.1340    -0.4530 cd         1 1A9      -0.180400
     18 SAW        -10.4540    -2.2090    -0.7350 ss         1 1A9      -0.061200
     19 CBD        -11.4530    -1.4730     0.5300 c          1 1A9       0.677100
     20 OAB        -12.5940    -1.7910     0.8920 o          1 1A9      -0.589500
     21 NAU        -10.7400    -0.4070     1.0950 ns         1 1A9      -0.469100
     22 CAK         -9.0670     2.0590     1.4090 ca         1 1A9      -0.189000
     23 CAZ         -8.1850     3.0700     1.8510 ca         1 1A9       0.195600
     24 NAT         -8.7000     4.3120     2.2560 nu         1 1A9      -0.772500
     25 SBF         -8.0170     5.7970     2.1290 sy         1 1A9       1.560200
     26 OAC         -8.7790     6.6590     2.9440 o          1 1A9      -0.652800
     27 OAD         -6.6340     5.7330     2.3920 o          1 1A9      -0.652800
     28 CBC         -8.2510     6.1970     0.5400 cc         1 1A9      -0.520600
     29 SAV         -7.3540     5.8350    -0.8020 ss         1 1A9       0.287200
     30 CAF         -8.2970     6.6580    -1.8520 cc         1 1A9      -0.177100
     31 CAE         -9.3700     7.2740    -1.2100 cd         1 1A9      -0.179000
     32 CAG         -9.3420     7.0070     0.1750 cd         1 1A9      -0.026000
     33 H1          -0.1060     1.1680     1.4570 hc         1 1A9       0.037950
     34 H2          -0.0450     0.9370    -0.3350 hc         1 1A9       0.037950
     35 H3           2.1450     0.0870    -0.2970 hc         1 1A9       0.039200
     36 H4           2.1960     1.2440     1.0850 hc         1 1A9       0.039200
     37 H5           3.1260    -0.6350     2.1070 hc         1 1A9       0.040200
     38 H6           2.2290    -1.7970     1.0570 hc         1 1A9       0.040200
     39 H7           1.0070    -0.1180     3.3440 hc         1 1A9       0.039200
     40 H8          -0.3380    -2.5630     2.1210 hc         1 1A9       0.037950
     41 H9          -0.0490    -1.5740     0.0480 hc         1 1A9       0.053700
     42 H10         -2.4790    -1.7210     0.7540 hc         1 1A9       0.059700
     43 H11         -2.1040    -0.6240    -0.6290 hc         1 1A9       0.059700
     44 H12         -2.2740     1.3670     0.8070 hc         1 1A9       0.069200
     45 H13         -2.4790     0.3390     2.2890 hc         1 1A9       0.069200
     46 H14         -4.3940     2.0730     2.0050 hn         1 1A9       0.323500
     47 H15         -6.1080     3.5880     2.2560 ha         1 1A9       0.173000
     48 H16         -6.8190    -0.4270     0.7110 ha         1 1A9       0.182000
     49 H17         -8.2450    -1.1730    -1.0150 h4         1 1A9       0.193000
     50 H18        -10.1490     2.2550     1.3670 ha         1 1A9       0.139000
     51 H19         -9.6360     4.2480     2.5920 hn         1 1A9       0.454800
     52 H20         -8.1080     6.7220    -2.9250 h4         1 1A9       0.183000
     53 H21        -10.1310     7.8830    -1.7020 ha         1 1A9       0.166000
     54 H22        -10.0730     7.3990     0.8920 ha         1 1A9       0.179000
     55 H23          1.4580    -1.8640     3.4430 hc         1 1A9       0.039200
     56 H24         -1.0520    -1.1020     2.8960 hc         1 1A9       0.037950
     57 H25        -11.0700     0.1260     1.8610 hn         1 1A9       0.345500
@<TRIPOS>BOND
     1     1     2 1   
     2     1     6 1   
     3     1    33 1   
     4     1    34 1   
     5     2     3 1   
     6     2    35 1   
     7     2    36 1   
     8     3     4 1   
     9     3    37 1   
    10     3    38 1   
    11     4     5 1   
    12     4    39 1   
    13     4    55 1   
    14     5     6 1   
    15     5    40 1   
    16     5    56 1   
    17     6     7 1   
    18     6    41 1   
    19     7     8 1   
    20     7    42 1   
    21     7    43 1   
    22     8     9 1   
    23     8    44 1   
    24     8    45 1   
    25     9    10 2   
    26     9    11 1   
    27    11    12 1   
    28    11    46 1   
    29    12    13 ar  
    30    12    14 ar  
    31    13    23 ar  
    32    13    47 1   
    33    14    15 ar  
    34    14    48 1   
    35    15    16 1   
    36    15    22 ar  
    37    16    17 2   
    38    16    21 1   
    39    17    18 1   
    40    17    49 1   
    41    18    19 1   
    42    19    20 2   
    43    19    21 1   
    44    21    57 1   
    45    22    23 ar  
    46    22    50 1   
    47    23    24 1   
    48    24    25 1   
    49    24    51 1   
    50    25    26 2   
    51    25    27 2   
    52    25    28 1   
    53    28    29 1   
    54    28    32 2   
    55    29    30 1   
    56    30    31 2   
    57    30    52 1   
    58    31    32 1   
    59    31    53 1   
    60    32    54 1   
@<TRIPOS>SUBSTRUCTURE
     1 1A9         1 TEMP              0 ****  ****    0 ROOT
