@<TRIPOS>MOLECULE
1AA
   61    63     1     0     0
SMALL
bcc


@<TRIPOS>ATOM
      1 O1          2.3870   -1.2680   -1.4060 o         1 1AA     -0.611500
      2 C1          1.6200   -0.6130   -0.6740 c         1 1AA      0.844900
      3 N4          1.6340   -0.7290    0.7210 nc        1 1AA     -0.723100
      4 C9'         0.7650   -0.0050    1.4490 cd        1 1AA      0.754500
      5 N3          0.7250   -0.1560    2.8170 nh        1 1AA     -0.919800
      6 C8'        -0.1780    0.9270    0.8270 cd        1 1AA     -0.411600
      7 C7'        -0.1630    1.0340   -0.5360 cc        1 1AA      0.056600
      8 N2          0.6800    0.2850   -1.3230 n         1 1AA     -0.399000
      9 C2          0.7350    0.4690   -2.7600 c3        1 1AA      0.245500
     10 O2'         1.3410    1.7330   -3.0950 os        1 1AA     -0.405600
     11 C3         -0.6600    0.4280   -3.4650 c3        1 1AA      0.123100
     12 O4'        -0.6260   -0.4500   -4.5600 oh        1 1AA     -0.561800
     13 C4         -0.9430    1.8960   -3.8520 c3        1 1AA      0.079100
     14 O3'        -1.3050    1.9310   -5.2170 oh        1 1AA     -0.587800
     15 C5          0.3840    2.6520   -3.6240 c3        1 1AA      0.068100
     16 C6          0.2610    3.8380   -2.6590 c3        1 1AA      0.172400
     17 O2          0.1540    5.0510   -3.3770 os        1 1AA     -0.579200
     18 P1         -1.2260    5.8170   -3.4950 p5        1 1AA      1.822500
     19 O1'        -1.3120    7.0520   -4.2450 o         1 1AA     -0.839300
     20 O9         -2.1770    4.6650   -4.0530 oh        1 1AA     -0.811400
     21 O3         -1.7400    5.9450   -1.9800 os        1 1AA     -0.812800
     22 P2         -2.4070    6.1810   -0.5280 p5        1 1AA      1.815500
     23 O8         -2.4140    5.0100    0.3170 o         1 1AA     -0.814300
     24 O7         -1.6800    7.4860   -0.0320 oh        1 1AA     -0.795400
     25 O4         -3.8120    6.7720   -1.0160 os        1 1AA     -0.613200
     26 C7         -4.7360    7.2650   -0.0760 c3        1 1AA      0.162400
     27 C8         -4.7980    8.7940   -0.1050 c3        1 1AA      0.108400
     28 O5         -5.1510    9.2610   -1.4050 os        1 1AA     -0.428900
     29 C9         -4.1330    9.5530   -2.2880 c         1 1AA      0.692700
     30 O6         -2.9760    9.4640   -1.8490 o         1 1AA     -0.618000
     31 C1'        -4.5950    9.9270   -3.6200 ca        1 1AA     -0.244600
     32 C2'        -5.9440   10.2880   -3.7960 ca        1 1AA     -0.024000
     33 C3'        -6.4420   10.6180   -5.0420 ca        1 1AA     -0.213000
     34 C4'        -5.5900   10.5800   -6.1560 ca        1 1AA     -0.046000
     35 C5'        -4.2630   10.2310   -6.0180 ca        1 1AA     -0.228000
     36 C6'        -3.7100    9.9130   -4.7370 ca        1 1AA      0.246600
     37 N1         -2.3610    9.6800   -4.6230 nh        1 1AA     -0.799200
     38 HN31        1.4130   -0.7030    3.2770 hn        1 1AA      0.439300
     39 HN32        0.2230    0.5140    3.3430 hn        1 1AA      0.439300
     40 H8'        -0.8720    1.5220    1.4330 ha        1 1AA      0.166000
     41 H7'        -0.8440    1.7310   -1.0630 h4        1 1AA      0.148000
     42 H2          1.4330   -0.3140   -3.1900 h2        1 1AA      0.150700
     43 H3         -1.4660    0.0170   -2.7990 h1        1 1AA      0.100700
     44 H4'        -0.1520   -0.0140   -5.2820 ho        1 1AA      0.424000
     45 H4         -1.7690    2.3170   -3.2180 h1        1 1AA      0.063700
     46 H6         -1.7400    2.7820   -5.3640 ho        1 1AA      0.424000
     47 H5          0.8130    3.0080   -4.6040 h1        1 1AA      0.101700
     48 H61         1.2080    3.9130   -2.0520 h1        1 1AA      0.067200
     49 H62        -0.6270    3.7260   -1.9830 h1        1 1AA      0.067200
     50 H71        -4.4500    6.9130    0.9520 h1        1 1AA      0.059200
     51 H72        -5.7400    6.8460   -0.3660 h1        1 1AA      0.059200
     52 H81        -3.8350    9.2550    0.2390 h1        1 1AA      0.075700
     53 H82        -5.6480    9.1400    0.5440 h1        1 1AA      0.075700
     54 H2'        -6.6070   10.3010   -2.9140 ha        1 1AA      0.146000
     55 H3'        -7.4960   10.9040   -5.1650 ha        1 1AA      0.138000
     56 H1         -5.9880   10.8320   -7.1510 ha        1 1AA      0.133000
     57 H5'        -3.6100   10.2070   -6.9030 ha        1 1AA      0.139000
     58 HN11       -2.0310    9.2710   -3.7730 hn        1 1AA      0.432800
     59 HN12       -1.8990    9.3320   -5.4350 hn        1 1AA      0.432800
     60 H33        -2.9910    4.9230   -4.4790 ho        1 1AA      0.493000
     61 H13        -1.7400    8.2890   -0.5580 ho        1 1AA      0.520000
@<TRIPOS>BOND
     1    1    2 2   
     2    2    3 1   
     3    2    8 1   
     4    3    4 2   
     5    4    5 1   
     6    4    6 1   
     7    5   38 1   
     8    5   39 1   
     9    6    7 2   
    10    6   40 1   
    11    7    8 1   
    12    7   41 1   
    13    8    9 1   
    14    9   10 1   
    15    9   11 1   
    16    9   42 1   
    17   10   15 1   
    18   11   12 1   
    19   11   13 1   
    20   11   43 1   
    21   12   44 1   
    22   13   14 1   
    23   13   15 1   
    24   13   45 1   
    25   14   46 1   
    26   15   16 1   
    27   15   47 1   
    28   16   17 1   
    29   16   48 1   
    30   16   49 1   
    31   17   18 1   
    32   18   19 2   
    33   18   20 1   
    34   18   21 1   
    35   20   60 1   
    36   21   22 1   
    37   22   23 2   
    38   22   24 1   
    39   22   25 1   
    40   24   61 1   
    41   25   26 1   
    42   26   27 1   
    43   26   50 1   
    44   26   51 1   
    45   27   28 1   
    46   27   52 1   
    47   27   53 1   
    48   28   29 1   
    49   29   30 2   
    50   29   31 1   
    51   31   32 ar  
    52   31   36 ar  
    53   32   33 ar  
    54   32   54 1   
    55   33   34 ar  
    56   33   55 1   
    57   34   35 ar  
    58   34   56 1   
    59   35   36 ar  
    60   35   57 1   
    61   36   37 1   
    62   37   58 1   
    63   37   59 1   
@<TRIPOS>SUBSTRUCTURE
     1 1AA         1 TEMP              0 ****  ****    0 ROOT
