@<TRIPOS>MOLECULE
molecule
   60    62     1     0     0
SMALL
bcc


@<TRIPOS>ATOM
      1 O1           0.0000     0.0000     0.0000 o          1 1AA      -0.528500
      2 C1           1.2190     0.0000     0.0000 c          1 1AA       0.822900
      3 N4           1.8750     0.0000     1.1600 nc         1 1AA      -0.669100
      4 C9'          3.2010     0.0010     1.1880 cd         1 1AA       0.461500
      5 N3           3.8670     0.0010     2.3910 nz         1 1AA      -0.713600
      6 C8'          3.9240     0.0060    -0.0220 cd         1 1AA      -0.422600
      7 C7'          3.2440     0.0000    -1.1930 cc         1 1AA       0.092600
      8 N2           1.8810     0.0000    -1.1720 n          1 1AA      -0.323000
      9 C2           1.1330     0.0010    -2.4310 c3         1 1AA       0.279500
     10 O2'          0.1600     1.0680    -2.4380 os         1 1AA      -0.358600
     11 C3           0.3020    -1.2960    -2.5630 c3         1 1AA       0.079100
     12 O4'          0.9770    -2.2490    -3.3860 oh         1 1AA      -0.585800
     13 C4          -1.0100    -0.8310    -3.2370 c3         1 1AA       0.106100
     14 O3'         -1.1850    -1.4820    -4.4970 oh         1 1AA      -0.579800
     15 C5          -0.8140     0.6890    -3.4350 c3         1 1AA       0.131100
     16 C6          -2.1310     1.4320    -3.2030 c3         1 1AA       0.164400
     17 O2          -1.9350     2.8300    -3.4340 os         1 1AA      -0.536200
     18 P1          -3.3530     3.5470    -3.1750 p5         1 1AA       1.265800
     19 O1'         -4.4180     3.0440    -4.2720 o          1 1AA      -0.718000
     20 O9          -3.8400     3.2000    -1.8200 o          1 1AA      -0.718000
     21 O3          -3.1760     5.1430    -3.2900 os         1 1AA      -0.628800
     22 P2          -4.4260     5.8070    -2.5220 p5         1 1AA       1.263800
     23 O8          -5.7490     5.6650    -3.4300 o          1 1AA      -0.731500
     24 O7          -4.6370     5.1140    -1.2320 o          1 1AA      -0.731500
     25 O4          -4.1250     7.3650    -2.2520 os         1 1AA      -0.541200
     26 C7          -5.2100     7.8660    -1.4700 c3         1 1AA       0.153400
     27 C8          -4.9860     9.3510    -1.1780 c3         1 1AA       0.156400
     28 O5          -5.0280    10.1010    -2.4200 os         1 1AA      -0.406900
     29 C9          -4.8530    11.4370    -2.4060 c          1 1AA       0.655700
     30 O6          -4.6600    12.0140    -1.3540 o          1 1AA      -0.584000
     31 C1'         -4.8960    12.1990    -3.6670 ca         1 1AA      -0.162600
     32 C2'         -4.9950    11.5300    -4.8900 ca         1 1AA      -0.048000
     33 C3'         -5.0350    12.2480    -6.0640 ca         1 1AA      -0.172000
     34 C4'         -4.9770    13.6320    -6.0410 ca         1 1AA      -0.096000
     35 C5'         -4.8790    14.3080    -4.8430 ca         1 1AA      -0.195000
     36 C6'         -4.8430    13.6020    -3.6460 ca         1 1AA       0.227600
     37 N1          -4.7450    14.2800    -2.4380 nv         1 1AA      -0.953200
     38 HN31         4.4390    -0.8170     2.4560 hn         1 1AA       0.451133
     39 HN32         4.4430     0.8170     2.4540 hn         1 1AA       0.451133
     40 H8'          5.0080     0.0070    -0.0160 ha         1 1AA       0.141000
     41 H7'          3.7770     0.0020    -2.1360 h4         1 1AA       0.181000
     42 H2           1.8050     0.1020    -3.2750 h2         1 1AA       0.083700
     43 H3           0.0950    -1.7110    -1.5840 h1         1 1AA       0.060700
     44 H4'          0.9700    -3.0910    -2.9620 ho         1 1AA       0.396000
     45 H4          -1.8550    -1.0200    -2.5850 h1         1 1AA       0.073700
     46 H6          -1.9480    -2.0350    -4.4630 ho         1 1AA       0.405000
     47 H5          -0.4310     0.8900    -4.4280 h1         1 1AA       0.077700
     48 H61         -2.8840     1.0550    -3.8850 h1         1 1AA       0.073700
     49 H62         -2.4590     1.2770    -2.1820 h1         1 1AA       0.073700
     50 H71         -6.1370     7.7420    -2.0180 h1         1 1AA       0.067700
     51 H72         -5.2660     7.3180    -0.5370 h1         1 1AA       0.067700
     52 H81         -5.7610     9.7090    -0.5120 h1         1 1AA       0.037200
     53 H82         -4.0180     9.4830    -0.7090 h1         1 1AA       0.037200
     54 H2'         -5.0410    10.4480    -4.9140 ha         1 1AA       0.176000
     55 H3'         -5.1120    11.7270    -7.0110 ha         1 1AA       0.133000
     56 H1          -5.0070    14.1870    -6.9710 ha         1 1AA       0.118000
     57 H5'         -4.8370    15.3900    -4.8340 ha         1 1AA       0.125000
     58 HN11        -5.4790    14.2060    -1.7620 hn         1 1AA       0.432300
     59 HN12        -3.9440    14.8490    -2.2470 hn         1 1AA       0.432300
     60 H33          3.2030     0.0090     3.1400 hn         1 1AA       0.451133
@<TRIPOS>BOND
     1     1     2 2   
     2     2     3 1   
     3     2     8 1   
     4     3     4 2   
     5     4     5 1   
     6     4     6 1   
     7     5    38 1   
     8     5    39 1   
     9     6     7 2   
    10     6    40 1   
    11     7     8 1   
    12     7    41 1   
    13     8     9 1   
    14     9    10 1   
    15     9    11 1   
    16     9    42 1   
    17    10    15 1   
    18    11    12 1   
    19    11    13 1   
    20    11    43 1   
    21    12    44 1   
    22    13    14 1   
    23    13    15 1   
    24    13    45 1   
    25    14    46 1   
    26    15    16 1   
    27    15    47 1   
    28    16    17 1   
    29    16    48 1   
    30    16    49 1   
    31    17    18 1   
    32    18    19 1   
    33    18    20 1   
    34    18    21 1   
    35    21    22 1   
    36    22    23 1   
    37    22    24 1   
    38    22    25 1   
    39    25    26 1   
    40    26    27 1   
    41    26    50 1   
    42    26    51 1   
    43    27    28 1   
    44    27    52 1   
    45    27    53 1   
    46    28    29 1   
    47    29    30 2   
    48    29    31 1   
    49    31    32 ar  
    50    31    36 ar  
    51    32    33 ar  
    52    32    54 1   
    53    33    34 ar  
    54    33    55 1   
    55    34    35 ar  
    56    34    56 1   
    57    35    36 ar  
    58    35    57 1   
    59    36    37 1   
    60    37    58 1   
    61    37    59 1   
    62    60     5 1   
@<TRIPOS>SUBSTRUCTURE
     1 1AA         1 TEMP              0 ****  ****    0 ROOT
