@<TRIPOS>MOLECULE
1AA
   60    62     1     0     0
SMALL
bcc


@<TRIPOS>ATOM
      1 O1           1.0610     1.3270     1.3180 o          1 1AA      -0.630500
      2 C1           2.2250     1.0110     0.9970 c          1 1AA       0.836900
      3 N4           3.2340     0.8470     1.9600 nc         1 1AA      -0.733100
      4 C9'          4.4730     0.5240     1.5540 cd         1 1AA       0.737500
      5 N3           5.5040     0.4450     2.4830 nv         1 1AA      -0.908800
      6 C8'          4.7940     0.2950     0.1500 cd         1 1AA      -0.440600
      7 C7'          3.7870     0.4450    -0.7700 cc         1 1AA       0.074600
      8 N2           2.5200     0.8230    -0.4050 n          1 1AA      -0.384000
      9 C2           1.4580     0.9360    -1.3990 c3         1 1AA       0.251500
     10 O2'          1.1620    -0.3440    -1.9730 os         1 1AA      -0.424600
     11 C3           1.8050     1.8960    -2.5830 c3         1 1AA       0.097100
     12 O4'          0.7370     2.7880    -2.7830 oh         1 1AA      -0.587800
     13 C4           2.0810     0.9580    -3.7840 c3         1 1AA       0.107100
     14 O3'          1.2520     1.3200    -4.8660 oh         1 1AA      -0.632800
     15 C5           1.6670    -0.4510    -3.3150 c3         1 1AA       0.090100
     16 C6           2.7410    -1.5490    -3.3360 c3         1 1AA       0.153400
     17 O2           4.0100    -1.0750    -3.7030 os         1 1AA      -0.608200
     18 P1           4.7390    -1.7600    -4.9810 p5         1 1AA       1.781500
     19 O1'          6.2430    -1.8120    -4.4560 oh         1 1AA      -0.780400
     20 O9           4.1240    -3.0220    -5.3600 o          1 1AA      -0.854300
     21 O3           4.8190    -0.5860    -5.9940 os         1 1AA      -0.812800
     22 P2           4.8450     0.8290    -6.9500 p5         1 1AA       1.582800
     23 O8           3.6670     1.5480    -6.4340 o          1 1AA      -0.838000
     24 O7           6.2450     1.2460    -6.9460 o          1 1AA      -0.838000
     25 O4           4.4580     0.1650    -8.3860 os         1 1AA      -0.581200
     26 C7           3.1140    -0.1030    -8.6530 c3         1 1AA       0.159400
     27 C8           2.9090    -1.5840    -8.9690 c3         1 1AA       0.115400
     28 O5           3.3820    -1.9090   -10.2850 os         1 1AA      -0.416900
     29 C9           2.5960    -1.5810   -11.3500 c          1 1AA       0.659700
     30 O6           1.4650    -1.1240   -11.1260 o          1 1AA      -0.592000
     31 C1'          3.2320    -1.8320   -12.6510 ca         1 1AA      -0.205600
     32 C2'          4.6270    -1.9680   -12.7040 ca         1 1AA      -0.023000
     33 C3'          5.2830    -2.1600   -13.9120 ca         1 1AA      -0.206000
     34 C4'          4.5430    -2.2180   -15.0950 ca         1 1AA      -0.063000
     35 C5'          3.1640    -2.0930   -15.0740 ca         1 1AA      -0.231000
     36 C6'          2.4660    -1.9100   -13.8480 ca         1 1AA       0.219600
     37 N1           1.0820    -1.8910   -13.8440 nv         1 1AA      -0.841200
     38 HN31         5.2660     0.4270     3.4460 hn         1 1AA       0.418300
     39 HN32         6.2900    -0.0950     2.2110 hn         1 1AA       0.418300
     40 H8'          5.8040     0.0150    -0.1650 ha         1 1AA       0.156000
     41 H7'          3.9590     0.2570    -1.8550 h4         1 1AA       0.196000
     42 H2           0.5120     1.2580    -0.8690 h2         1 1AA       0.135700
     43 H3           2.6920     2.5460    -2.3580 h1         1 1AA       0.088700
     44 H4'          0.1290     2.3920    -3.4260 ho         1 1AA       0.426000
     45 H4           3.1640     1.0180    -4.0620 h1         1 1AA       0.108700
     46 H6           1.8260     1.6930    -5.5590 ho         1 1AA       0.481000
     47 H5           0.7840    -0.8030    -3.9210 h1         1 1AA       0.085700
     48 H61          2.8240    -1.9740    -2.2930 h1         1 1AA       0.062700
     49 H62          2.4240    -2.3670    -4.0430 h1         1 1AA       0.062700
     50 H71          2.8020     0.5000    -9.5530 h1         1 1AA       0.050700
     51 H72          2.4750     0.1830    -7.7700 h1         1 1AA       0.050700
     52 H81          3.5430    -2.2410    -8.3160 h1         1 1AA       0.075200
     53 H82          1.8240    -1.8490    -8.8790 h1         1 1AA       0.075200
     54 H2'          5.2000    -1.9110   -11.7610 ha         1 1AA       0.168000
     55 H3'          6.3770    -2.2600   -13.9370 ha         1 1AA       0.135000
     56 H1           5.0590    -2.3620   -16.0560 ha         1 1AA       0.123000
     57 H5'          2.5990    -2.1440   -16.0170 ha         1 1AA       0.126000
     58 HN11         0.6360    -1.5500   -13.0180 hn         1 1AA       0.419300
     59 HN12         0.6500    -1.6300   -14.6990 hn         1 1AA       0.419300
     60 H33          6.8020    -1.0780    -4.7010 ho         1 1AA       0.484000
@<TRIPOS>BOND
     1     1     2 2   
     2     2     3 1   
     3     2     8 1   
     4     3     4 2   
     5     4     5 1   
     6     4     6 1   
     7     5    38 1   
     8     5    39 1   
     9     6     7 2   
    10     6    40 1   
    11     7     8 1   
    12     7    41 1   
    13     8     9 1   
    14     9    10 1   
    15     9    11 1   
    16     9    42 1   
    17    10    15 1   
    18    11    12 1   
    19    11    13 1   
    20    11    43 1   
    21    12    44 1   
    22    13    14 1   
    23    13    15 1   
    24    13    45 1   
    25    14    46 1   
    26    15    16 1   
    27    15    47 1   
    28    16    17 1   
    29    16    48 1   
    30    16    49 1   
    31    17    18 1   
    32    18    19 1   
    33    18    20 2   
    34    18    21 1   
    35    19    60 1   
    36    21    22 1   
    37    22    23 1   
    38    22    24 1   
    39    22    25 1   
    40    25    26 1   
    41    26    27 1   
    42    26    50 1   
    43    26    51 1   
    44    27    28 1   
    45    27    52 1   
    46    27    53 1   
    47    28    29 1   
    48    29    30 2   
    49    29    31 1   
    50    31    32 ar  
    51    31    36 ar  
    52    32    33 ar  
    53    32    54 1   
    54    33    34 ar  
    55    33    55 1   
    56    34    35 ar  
    57    34    56 1   
    58    35    36 ar  
    59    35    57 1   
    60    36    37 1   
    61    37    58 1   
    62    37    59 1   
@<TRIPOS>SUBSTRUCTURE
     1 1AA         1 TEMP              0 ****  ****    0 ROOT
