@<TRIPOS>MOLECULE
1AB
   20    20     1     0     0
SMALL
bcc


@<TRIPOS>ATOM
      1 O4           0.0000     0.0000     0.0000 oh         1 1AB      -0.584800
      2 C4           1.4290     0.0000     0.0000 c3         1 1AB       0.170100
      3 C3           1.9660     0.0000     1.4480 c3         1 1AB       0.161100
      4 O3           2.8040     1.1360     1.6700 oh         1 1AB      -0.573800
      5 C2           2.7820    -1.3030     1.5740 c3         1 1AB       0.121800
      6 N1           3.1740    -1.6350     0.1790 n7         1 1AB      -0.561200
      7 C5           1.9720    -1.3020    -0.6260 c3         1 1AB       0.095500
      8 C6           2.3580    -1.0710    -2.0890 c3         1 1AB       0.233400
      9 O6           2.7830    -2.3050    -2.6700 oh         1 1AB      -0.594800
     10 HO4         -0.3140     0.8480    -0.2680 ho         1 1AB       0.392000
     11 H4           1.8100     0.8600    -0.5380 h1         1 1AB       0.028700
     12 H3           1.1410    -0.0070     2.1510 h1         1 1AB       0.015700
     13 HO3          2.5310     1.5790     2.4560 ho         1 1AB       0.386000
     14 H21          3.6630    -1.1380     2.1830 h1         1 1AB       0.019700
     15 H22          2.1690    -2.0930     1.9910 h1         1 1AB       0.019700
     16 HN1          3.3610    -2.6160     0.1100 hn         1 1AB       0.262800
     17 H5           1.2350    -2.0920    -0.5450 h1         1 1AB       0.034700
     18 H61          3.1650    -0.3510    -2.1400 h1         1 1AB      -0.007800
     19 H62          1.5010    -0.6920    -2.6330 h1         1 1AB      -0.007800
     20 HO6          2.8880    -2.1950    -3.6010 ho         1 1AB       0.390000
@<TRIPOS>BOND
     1     1     2 1   
     2     1    10 1   
     3     2     3 1   
     4     2     7 1   
     5     2    11 1   
     6     3     4 1   
     7     3     5 1   
     8     3    12 1   
     9     4    13 1   
    10     5     6 1   
    11     5    14 1   
    12     5    15 1   
    13     6     7 1   
    14     6    16 1   
    15     7     8 1   
    16     7    17 1   
    17     8     9 1   
    18     8    18 1   
    19     8    19 1   
    20     9    20 1   
@<TRIPOS>SUBSTRUCTURE
     1 1AB         1 TEMP              0 ****  ****    0 ROOT
