@<TRIPOS>MOLECULE
1AB
   20    20     1     0     0
SMALL
bcc


@<TRIPOS>ATOM
      1 O4          -0.1710    -0.7670     0.4500 oh         1 1AB      -0.599800
      2 C4           1.1010    -0.3080     0.0370 c3         1 1AB       0.125100
      3 C3           1.9700     0.0930     1.2530 c3         1 1AB       0.078100
      4 O3           2.1340     1.4970     1.2170 oh         1 1AB      -0.589800
      5 C2           3.3010    -0.6680     1.0560 c3         1 1AB       0.117800
      6 N1           3.1150    -1.7180     0.0650 n7         1 1AB      -0.804200
      7 C5           1.8340    -1.5110    -0.6220 c3         1 1AB       0.120500
      8 C6           2.0180    -1.2640    -2.1290 c3         1 1AB       0.144400
      9 O6           2.6820    -0.0550    -2.4260 oh         1 1AB      -0.599800
     10 HO4         -0.6650     0.0100     0.7380 ho         1 1AB       0.411000
     11 H4           1.0100     0.5520    -0.6800 h1         1 1AB       0.089700
     12 H3           1.4700    -0.2050     2.2140 h1         1 1AB       0.051700
     13 HO3          2.7960     1.7190     1.8830 ho         1 1AB       0.404000
     14 H21          3.6710    -1.0800     2.0320 h1         1 1AB       0.053700
     15 H22          4.0780     0.0430     0.6570 h1         1 1AB       0.053700
     16 HN1          3.1260    -2.6210     0.5000 hn         1 1AB       0.361800
     17 H5           1.1770    -2.4250    -0.5230 h1         1 1AB       0.070700
     18 H61          1.0060    -1.1560    -2.6050 h1         1 1AB       0.050200
     19 H62          2.5650    -2.1290    -2.5910 h1         1 1AB       0.050200
     20 HO6          3.5480    -0.0870    -2.0020 ho         1 1AB       0.411000
@<TRIPOS>BOND
     1     1     2 1   
     2     1    10 1   
     3     2     3 1   
     4     2     7 1   
     5     2    11 1   
     6     3     4 1   
     7     3     5 1   
     8     3    12 1   
     9     4    13 1   
    10     5     6 1   
    11     5    14 1   
    12     5    15 1   
    13     6     7 1   
    14     6    16 1   
    15     7     8 1   
    16     7    17 1   
    17     8     9 1   
    18     8    18 1   
    19     8    19 1   
    20     9    20 1   
@<TRIPOS>SUBSTRUCTURE
     1 1AB         1 TEMP              0 ****  ****    0 ROOT
