@<TRIPOS>MOLECULE
1AD
   46    47     1     0     0
SMALL
bcc


@<TRIPOS>ATOM
      1 C2          -0.1060     0.1350     0.0920 c3         1 1AD       0.207800
      2 C3           0.6330    -0.6810     2.2610 c3         1 1AD       0.084700
      3 C4          -1.7360    -0.9970     1.6610 c          1 1AD       0.659100
      4 C5           1.4380    -0.0050     0.0290 c3         1 1AD      -0.087400
      5 C6          -0.5100     1.5080    -0.0750 c1         1 1AD      -0.285100
      6 C7           1.9040    -0.4040     1.4200 c3         1 1AD      -0.087400
      7 C8           0.6880     0.2130     3.5220 c3         1 1AD       0.084800
      8 C9          -2.8520    -1.0480     0.5930 c3         1 1AD       0.070500
      9 N1          -0.5190    -0.4480     1.3870 n          1 1AD      -0.438800
     10 O10         -1.9840    -1.4640     2.8060 o          1 1AD      -0.689100
     11 C11         -0.7800     2.6570    -0.2870 c1         1 1AD       0.011900
     12 N12         -0.2660    -0.1950     4.5880 nz         1 1AD      -0.835600
     13 C13         -3.6230     0.2850     0.5540 c3         1 1AD      -0.096700
     14 N14         -3.7770    -2.1950     0.8870 nz         1 1AD      -0.836600
     15 C15         -1.0940     4.0210    -0.5570 c3         1 1AD      -0.062000
     16 C16         -4.6270     0.3100    -0.6020 c3         1 1AD      -0.104400
     17 C17         -4.4430     0.5350     1.8200 c3         1 1AD      -0.104400
     18 C18         -6.0100     0.0660    -0.0100 c3         1 1AD      -0.101400
     19 C19         -5.8810     0.1410     1.5060 c3         1 1AD      -0.101400
     20 H2          -0.5640    -0.4820    -0.7420 h1         1 1AD       0.075700
     21 H3           0.6160    -1.7650     2.5860 h1         1 1AD       0.088700
     22 H51          1.7110    -0.7870    -0.7250 hc         1 1AD       0.098200
     23 H52          1.9050     0.9590    -0.2960 hc         1 1AD       0.098200
     24 H71          2.5210     0.4120     1.8740 hc         1 1AD       0.090200
     25 H72          2.5350    -1.3290     1.3840 hc         1 1AD       0.090200
     26 H81          1.7310     0.1390     3.9530 hx         1 1AD       0.128200
     27 H82          0.4820     1.2910     3.2570 hx         1 1AD       0.128200
     28 H9          -2.4080    -1.2450    -0.4310 hx         1 1AD       0.131700
     29 H121        -0.1330     0.3880     5.4210 hn         1 1AD       0.469467
     30 H122        -1.2360    -0.1040     4.2550 hn         1 1AD       0.469467
     31 H13         -2.8470     1.0900     0.4120 hc         1 1AD       0.113700
     32 H141        -3.3570    -3.0830     0.6010 hn         1 1AD       0.476800
     33 H142        -4.6640    -2.0450     0.3830 hn         1 1AD       0.476800
     34 H151        -1.9630     4.3630     0.0640 hc         1 1AD       0.089367
     35 H152        -0.2130     4.6790    -0.3280 hc         1 1AD       0.089367
     36 H153        -1.3570     4.1550    -1.6410 hc         1 1AD       0.089367
     37 H161        -4.5940     1.3200    -1.0890 hc         1 1AD       0.070450
     38 H162        -4.3780    -0.4370    -1.3970 hc         1 1AD       0.070450
     39 H171        -4.0400    -0.0230     2.7010 hc         1 1AD       0.070450
     40 H172        -4.3990     1.6280     2.0710 hc         1 1AD       0.070450
     41 H181        -6.4200    -0.9260    -0.3310 hc         1 1AD       0.069950
     42 H182        -6.7310     0.8400    -0.3830 hc         1 1AD       0.069950
     43 H191        -6.5950     0.8950     1.9280 hc         1 1AD       0.069950
     44 H192        -6.1380    -0.8410     1.9780 hc         1 1AD       0.069950
     45 H123        -0.1190    -1.1810     4.8380 hn         1 1AD       0.469467
     46 H143        -3.9710    -2.2260     1.9000 hn         1 1AD       0.476800
@<TRIPOS>BOND
     1     1     4 1   
     2     1     5 1   
     3     1     9 1   
     4     1    20 1   
     5     2     6 1   
     6     2     7 1   
     7     2     9 1   
     8     2    21 1   
     9     3     8 1   
    10     3     9 1   
    11     3    10 2   
    12     4     6 1   
    13     4    22 1   
    14     4    23 1   
    15     5    11 3   
    16     6    24 1   
    17     6    25 1   
    18     7    12 1   
    19     7    26 1   
    20     7    27 1   
    21     8    13 1   
    22     8    14 1   
    23     8    28 1   
    24    11    15 1   
    25    12    29 1   
    26    12    30 1   
    27    12    45 1   
    28    13    16 1   
    29    13    17 1   
    30    13    31 1   
    31    14    32 1   
    32    14    33 1   
    33    14    46 1   
    34    15    34 1   
    35    15    35 1   
    36    15    36 1   
    37    16    18 1   
    38    16    37 1   
    39    16    38 1   
    40    17    19 1   
    41    17    39 1   
    42    17    40 1   
    43    18    19 1   
    44    18    41 1   
    45    18    42 1   
    46    19    43 1   
    47    19    44 1   
@<TRIPOS>SUBSTRUCTURE
     1 1AD         1 TEMP              0 ****  ****    0 ROOT
