@<TRIPOS>MOLECULE
1AD
   46    47     1     0     0
SMALL
bcc


@<TRIPOS>ATOM
      1 C2           0.0000     0.0000     0.0000 c3         1 1AD       0.161800
      2 C3           0.7300    -0.8730     2.1050 c3         1 1AD       0.007700
      3 C4          -1.5470    -1.5180     1.2700 c          1 1AD       0.608100
      4 C5           1.5480     0.0000     0.0000 c3         1 1AD      -0.016400
      5 C6          -0.5130     1.3660     0.1960 c1         1 1AD      -0.323100
      6 C7           1.8610     0.0000     1.5190 c3         1 1AD      -0.015400
      7 C8           0.2650    -0.2960     3.4430 c3         1 1AD      -0.047200
      8 C9          -2.6000    -1.4130     0.1970 c3         1 1AD      -0.127500
      9 N1          -0.3810    -0.8580     1.1370 n          1 1AD      -0.090800
     10 O10         -1.7520    -2.1970     2.2540 o          1 1AD      -0.754100
     11 C11         -0.9040     2.4630     0.3460 c1         1 1AD       0.028900
     12 N12         -0.9090    -1.0400     3.9160 nz         1 1AD      -0.007600
     13 C13         -3.3680    -0.1000     0.3630 c3         1 1AD      -0.100700
     14 N14         -3.5320    -2.5430     0.3120 nz         1 1AD       0.063400
     15 C15         -1.4300     3.6860     0.8770 c3         1 1AD       0.093000
     16 C16         -4.4390     0.0260    -0.7350 c3         1 1AD      -0.033900
     17 C17         -4.1150    -0.0920     1.7130 c3         1 1AD      -0.033900
     18 C18         -5.8010     0.1070    -0.0130 c3         1 1AD      -0.016900
     19 C19         -5.4500     0.6300     1.4020 c3         1 1AD      -0.016900
     20 H2          -0.3740    -0.4190    -0.9260 h1         1 1AD       0.048700
     21 H3           1.0840    -1.8880     2.2400 h1         1 1AD       0.071700
     22 H51          1.9340    -0.8950    -0.4730 hc         1 1AD       0.062700
     23 H52          1.9340     0.8950    -0.4730 hc         1 1AD       0.062700
     24 H71          2.8270    -0.4500     1.7100 hc         1 1AD       0.058200
     25 H72          1.8120     1.0060     1.9190 hc         1 1AD       0.058200
     26 H81          1.0630    -0.3810     4.1700 hx         1 1AD       0.094200
     27 H82          0.0040     0.7480     3.3150 hx         1 1AD       0.094200
     28 H9          -2.1260    -1.4340    -0.7770 hx         1 1AD       0.112700
     29 H121        -1.0710    -0.8290     4.8810 hn         1 1AD       0.253467
     30 H122        -1.7110    -0.7750     3.3780 hn         1 1AD       0.253467
     31 H13         -2.6880     0.7420     0.3120 hc         1 1AD       0.094700
     32 H141        -4.0980    -2.5940    -0.5120 hn         1 1AD       0.245133
     33 H142        -4.1190    -2.4110     1.1120 hn         1 1AD       0.245133
     34 H151        -2.0790     3.4650     1.7160 hc         1 1AD       0.037033
     35 H152        -0.6130     4.3160     1.2090 hc         1 1AD       0.037033
     36 H153        -1.9940     4.2000     0.1090 hc         1 1AD       0.037033
     37 H161        -4.4130    -0.8440    -1.3790 hc         1 1AD       0.021450
     38 H162        -4.2730     0.9280    -1.3120 hc         1 1AD       0.021450
     39 H171        -4.3020    -1.1050     2.0470 hc         1 1AD       0.021450
     40 H172        -3.5500     0.4610     2.4530 hc         1 1AD       0.021450
     41 H181        -6.2540    -0.8750     0.0490 hc         1 1AD       0.042450
     42 H182        -6.4570     0.8030    -0.5220 hc         1 1AD       0.042450
     43 H191        -5.3100     1.7040     1.3880 hc         1 1AD       0.042450
     44 H192        -6.2140     0.3440     2.1150 hc         1 1AD       0.042450
     45 H123        -0.7500    -2.0210     3.8040 hn         1 1AD       0.253467
     46 H143        -3.0150    -3.3960     0.3970 hn         1 1AD       0.245133
@<TRIPOS>BOND
     1     1     4 1   
     2     1     5 1   
     3     1     9 1   
     4     1    20 1   
     5     2     6 1   
     6     2     7 1   
     7     2     9 1   
     8     2    21 1   
     9     3     8 1   
    10     3     9 1   
    11     3    10 2   
    12     4     6 1   
    13     4    22 1   
    14     4    23 1   
    15     5    11 3   
    16     6    24 1   
    17     6    25 1   
    18     7    12 1   
    19     7    26 1   
    20     7    27 1   
    21     8    13 1   
    22     8    14 1   
    23     8    28 1   
    24    11    15 1   
    25    12    29 1   
    26    12    30 1   
    27    12    45 1   
    28    13    16 1   
    29    13    17 1   
    30    13    31 1   
    31    14    32 1   
    32    14    33 1   
    33    14    46 1   
    34    15    34 1   
    35    15    35 1   
    36    15    36 1   
    37    16    18 1   
    38    16    37 1   
    39    16    38 1   
    40    17    19 1   
    41    17    39 1   
    42    17    40 1   
    43    18    19 1   
    44    18    41 1   
    45    18    42 1   
    46    19    43 1   
    47    19    44 1   
@<TRIPOS>SUBSTRUCTURE
     1 1AD         1 TEMP              0 ****  ****    0 ROOT
