@<TRIPOS>MOLECULE
1AE
   22    21     1     0     0
SMALL
bcc


@<TRIPOS>ATOM
      1 C1           0.0410     0.0020     0.1420 c3         1 1AE      -0.088100
      2 C2           1.5380     0.1800     0.1270 c3         1 1AE      -0.067400
      3 C3           2.1820    -0.4090     1.3610 c3         1 1AE      -0.184400
      4 C4           3.6920    -0.2480     1.3600 c          1 1AE       0.603300
      5 O4           4.2480     0.2830     0.3680 o          1 1AE      -0.689100
      6 C5           4.3620    -0.7240     2.5260 ce         1 1AE      -0.340100
      7 O5           5.7360    -0.4670     2.5770 oh         1 1AE      -0.523100
      8 C6           3.7510    -1.3930     3.5910 c2         1 1AE       0.270100
      9 O7           4.4240    -1.8700     4.5830 os         1 1AE      -0.349500
     10 P            3.3490    -2.8320     5.7420 p5         1 1AE       1.277900
     11 O8           4.2840    -3.1210     6.8670 o          1 1AE      -0.892500
     12 O9           3.0060    -3.9300     4.7890 o          1 1AE      -0.892500
     13 O10          2.3040    -1.7770     5.9240 o          1 1AE      -0.892500
     14 H11         -0.4050     0.5020     1.0350 hc         1 1AE       0.016700
     15 H12         -0.2250    -1.0820     0.1830 hc         1 1AE       0.016700
     16 H13         -0.4170     0.4440    -0.7760 hc         1 1AE       0.016700
     17 H21          1.7940     1.2700     0.0620 hc         1 1AE       0.036700
     18 H22          1.9740    -0.3070    -0.7840 hc         1 1AE       0.036700
     19 H31          1.7680     0.0850     2.2790 hc         1 1AE       0.061200
     20 H32          1.9410    -1.5030     1.4310 hc         1 1AE       0.061200
     21 HO5          6.1230    -1.2660     2.9620 ho         1 1AE       0.386000
     22 H62          2.6510    -1.5630     3.6010 h4         1 1AE       0.136000
@<TRIPOS>BOND
     1     1     2 1   
     2     1    14 1   
     3     1    15 1   
     4     1    16 1   
     5     2     3 1   
     6     2    17 1   
     7     2    18 1   
     8     3     4 1   
     9     3    19 1   
    10     3    20 1   
    11     4     5 2   
    12     4     6 1   
    13     6     7 1   
    14     6     8 2   
    15     7    21 1   
    16     8     9 1   
    17     8    22 1   
    18     9    10 1   
    19    10    11 1   
    20    10    12 1   
    21    10    13 1   
@<TRIPOS>SUBSTRUCTURE
     1 1AE         1 TEMP              0 ****  ****    0 ROOT
