@<TRIPOS>MOLECULE
1AE
   22    20     1     0     0
SMALL
bcc


@<TRIPOS>ATOM
      1 C1          0.0560   -0.0280   -0.2470 c3        1 1AE     -0.202000
      2 C2          1.5360   -0.2210   -0.0340 c3        1 1AE     -0.150000
      3 C3          2.0250    0.5020    1.2020 c3        1 1AE     -0.197000
      4 C4          3.5350    0.4240    1.3290 c2        1 1AE      0.284000
      5 O4          4.2410    0.7190    0.3270 o         1 1AE     -0.499000
      6 C5          4.0500    0.0750    2.6070 c2        1 1AE     -0.416000
      7 O5          5.4350   -0.1060    2.7080 oh        1 1AE     -0.297000
      8 C6          3.2450   -0.1270    3.7370 c1        1 1AE     -0.071000
      9 O7          3.7970   -0.3800    4.9200 oh        1 1AE     -0.304000
     10 P           3.6490   -0.5820    7.2790 p3        1 1AE      2.450000
     11 O8          2.9860   -1.8850    7.4890 o         1 1AE     -1.151333
     12 O9          2.9640    0.6470    7.7300 o         1 1AE     -1.151333
     13 O10         5.1050   -0.5420    7.0110 o         1 1AE     -1.151333
     14 H11        -0.1830    1.0540   -0.3930 hc        1 1AE      0.051333
     15 H12        -0.2900   -0.5880   -1.1490 hc        1 1AE      0.051333
     16 H13        -0.5170   -0.3940    0.6390 hc        1 1AE      0.051333
     17 H21         2.1050    0.1520   -0.9270 hc        1 1AE      0.076500
     18 H22         1.7610   -1.3150    0.0670 hc        1 1AE      0.076500
     19 H31         1.5470    0.0730    2.1230 hc        1 1AE      0.096000
     20 H32         1.7400    1.5860    1.1400 hc        1 1AE      0.096000
     21 HO5         5.8240    0.7640    2.5540 ho        1 1AE      0.152000
     22 H62         4.7790   -0.4070    4.9250 ho        1 1AE      0.206000
@<TRIPOS>BOND
     1    1    2 1   
     2    1   14 1   
     3    1   15 1   
     4    1   16 1   
     5    2    3 1   
     6    2   17 1   
     7    2   18 1   
     8    3    4 1   
     9    3   19 1   
    10    3   20 1   
    11    4    5 1   
    12    4    6 1   
    13    6    7 1   
    14    6    8 1   
    15    7   21 1   
    16    8    9 1   
    17    9   22 1   
    18   10   11 1   
    19   10   12 1   
    20   10   13 1   
@<TRIPOS>SUBSTRUCTURE
     1 1AE         1 TEMP              0 ****  ****    0 ROOT
