@<TRIPOS>MOLECULE
molecule
   22    21     1     0     0
SMALL
bcc


@<TRIPOS>ATOM
      1 C1           0.0000     0.0000     0.0000 c3         1 1AE      -0.092100
      2 C2           1.5200     0.0000     0.0000 c3         1 1AE      -0.073400
      3 C3           2.0820     0.0000     1.4210 c3         1 1AE      -0.176400
      4 C4           3.6030     0.0330     1.4410 c          1 1AE       0.574300
      5 O4           4.2670     0.0680     0.4030 o          1 1AE      -0.619100
      6 C5           4.3190     0.0200     2.7550 ce         1 1AE      -0.248100
      7 O5           5.6990     0.0500     2.6940 oh         1 1AE      -0.492100
      8 C6           3.6620    -0.0170     3.9210 c2         1 1AE       0.244100
      9 O7           4.2980    -0.0290     5.1350 os         1 1AE      -0.374500
     10 P            3.5060    -0.0750     6.5330 p5         1 1AE       1.074900
     11 O8           2.8150    -1.5380     6.5530 o          1 1AE      -0.864167
     12 O9           2.5680     1.0660     6.8030 o          1 1AE      -0.864167
     13 O10          4.6990    -0.2280     7.6150 o          1 1AE      -0.864167
     14 H11         -0.3610    -0.8810     0.5170 hc         1 1AE       0.024033
     15 H12         -0.3610     0.8880     0.5040 hc         1 1AE       0.024033
     16 H13         -0.3610    -0.0080    -1.0210 hc         1 1AE       0.024033
     17 H21          1.8740    -0.8820    -0.5200 hc         1 1AE       0.038700
     18 H22          1.8740     0.8820    -0.5200 hc         1 1AE       0.038700
     19 H31          1.7440    -0.8930     1.9320 hc         1 1AE       0.066200
     20 H32          1.7060     0.8690     1.9470 hc         1 1AE       0.066200
     21 HO5          6.0330    -0.8310     2.6840 ho         1 1AE       0.377000
     22 H62          2.5790    -0.0380     3.9100 h4         1 1AE       0.115000
@<TRIPOS>BOND
     1     1     2 1
     2     1    14 1
     3     1    15 1
     4     1    16 1
     5     2     3 1
     6     2    17 1
     7     2    18 1
     8     3     4 1
     9     3    19 1
    10     3    20 1
    11     4     6 1
    12     4     5 2
    13     6     8 2
    14     6     7 1
    15     7    21 1
    16     8     9 1
    17     8    22 1
    18     9    10 1
    19    10    12 1
    20    10    11 1
    21    10    13 1
@<TRIPOS>SUBSTRUCTURE
     1 1AE         1 TEMP              0 ****  ****    0 ROOT
