@<TRIPOS>MOLECULE
1AF
   73    77     1     0     0
SMALL
bcc


@<TRIPOS>ATOM
      1 C1         -1.1130   -0.7600   -0.0340 c3        1 1AF     -0.109400
      2 C2          0.3710   -0.9120   -0.3350 c3        1 1AF     -0.099400
      3 C3          1.1050   -0.9670    0.9990 c3        1 1AF     -0.099400
      4 C4          0.0530   -0.8990    2.0990 c3        1 1AF     -0.109400
      5 C5         -1.2220   -0.3360    1.4460 c3        1 1AF      0.114500
      6 N6         -1.2960    1.1800    1.5580 n4        1 1AF     -0.801000
      7 C7         -1.6840    1.7090    2.9220 c3        1 1AF      0.411000
      8 N8         -3.1350    1.4420    3.3000 n4        1 1AF     -0.867600
      9 C9         -1.4090    3.1810    3.0250 ca        1 1AF     -0.285300
     10 C12        -0.5050    3.6280    4.0000 ca        1 1AF     -0.073500
     11 C13        -0.2250    4.9840    4.1200 ca        1 1AF     -0.114500
     12 C10        -2.0290    4.1140    2.1770 ca        1 1AF     -0.073500
     13 C11        -1.7460    5.4680    2.3010 ca        1 1AF     -0.114500
     14 C14        -0.8350    5.9320    3.2730 ca        1 1AF      0.107000
     15 C15        -0.5180    7.3300    3.4070 cc        1 1AF     -0.248300
     16 C17         0.5550    7.8650    4.1270 cd        1 1AF      0.375600
     17 O18         0.5550    9.2360    4.0460 os        1 1AF     -0.328800
     18 C16        -1.2260    8.4640    2.8440 cc        1 1AF     -0.145300
     19 C19        -0.5560    9.6090    3.2520 cd        1 1AF      0.247200
     20 C20        -0.7380   11.0250    3.0610 ca        1 1AF     -0.019500
     21 C23         0.1550   11.9440    3.6560 ca        1 1AF     -0.098500
     22 C24        -0.0190   13.3100    3.4850 ca        1 1AF     -0.080500
     23 C21        -1.8030   11.5180    2.2880 ca        1 1AF     -0.098500
     24 C22        -1.9780   12.8900    2.1150 ca        1 1AF     -0.080500
     25 C25        -1.0890   13.7940    2.7130 ca        1 1AF     -0.275300
     26 C26        -1.3020   15.2680    2.5180 c3        1 1AF      0.410000
     27 N27        -1.6590   15.8990    3.8570 n4        1 1AF     -0.867600
     28 N28        -0.1030   15.8990    1.8420 n4        1 1AF     -0.801000
     29 C29        -0.3150   17.3150    1.3260 c3        1 1AF      0.114500
     30 C30         1.0360   17.9510    0.9360 c3        1 1AF     -0.109400
     31 C31         1.2210   17.6990   -0.5540 c3        1 1AF     -0.099900
     32 C32        -0.1300   17.2810   -1.1190 c3        1 1AF     -0.099900
     33 C33        -1.1360   17.3350    0.0240 c3        1 1AF     -0.109400
     34 H34        -1.6160   -0.0560   -0.7430 hc        1 1AF      0.094950
     35 H35        -1.6350   -1.7520   -0.1320 hc        1 1AF      0.094950
     36 H37         0.7430   -0.0610   -0.9590 hc        1 1AF      0.090700
     37 H36         0.5490   -1.8490   -0.9270 hc        1 1AF      0.090700
     38 H39         1.8310   -0.1190    1.0890 hc        1 1AF      0.090700
     39 H38         1.7000   -1.9140    1.0910 hc        1 1AF      0.090700
     40 H41         0.4090   -0.3080    2.9780 hc        1 1AF      0.094950
     41 H40        -0.1880   -1.9350    2.4650 hc        1 1AF      0.094950
     42 H42        -2.1550   -0.7480    1.9170 hx        1 1AF      0.082700
     43 H43        -0.3450    1.5500    1.3710 hn        1 1AF      0.478300
     44 H7         -1.0540    1.1230    3.6790 hx        1 1AF      0.169700
     45 H44        -3.2600    1.7860    4.2680 hn        1 1AF      0.487133
     46 H45        -3.7830    1.9620    2.6950 hn        1 1AF      0.487133
     47 H48        -0.0060    2.9160    4.6810 ha        1 1AF      0.150000
     48 H49         0.4860    5.3160    4.8970 ha        1 1AF      0.175500
     49 H46        -2.7410    3.7890    1.4020 ha        1 1AF      0.150000
     50 H47        -2.2360    6.1890    1.6250 ha        1 1AF      0.175500
     51 H51         1.3770    7.4460    4.7140 h4        1 1AF      0.092100
     52 H50        -2.1220    8.4120    2.2260 ha        1 1AF      0.180000
     53 H54         0.9980   11.5680    4.2650 ha        1 1AF      0.186000
     54 H55         0.6970   13.9980    3.9630 ha        1 1AF      0.151500
     55 H52        -2.5110   10.8180    1.8110 ha        1 1AF      0.186000
     56 H53        -2.8230   13.2480    1.5010 ha        1 1AF      0.151500
     57 H26        -2.1960   15.4670    1.8310 hx        1 1AF      0.167700
     58 H56        -2.5210   15.4340    4.1890 hn        1 1AF      0.488467
     59 H57        -1.8390   16.9090    3.7800 hn        1 1AF      0.488467
     60 H58         0.7220   15.8780    2.4560 hn        1 1AF      0.479300
     61 H59        -0.8110   17.8970    2.1490 hx        1 1AF      0.082700
     62 H60         1.9020   17.5750    1.5360 hc        1 1AF      0.094950
     63 H61         0.9520   19.0550    1.1380 hc        1 1AF      0.094950
     64 H62         1.5950   18.6310   -1.0570 hc        1 1AF      0.090700
     65 H63         1.9910   16.9060   -0.7340 hc        1 1AF      0.090700
     66 H64        -0.0770   16.2520   -1.5550 hc        1 1AF      0.090700
     67 H65        -0.4480   17.9690   -1.9470 hc        1 1AF      0.090700
     68 H67        -1.6970   18.3090   -0.0030 hc        1 1AF      0.094950
     69 H66        -1.8890   16.5130   -0.0460 hc        1 1AF      0.094950
     70 H621       -1.9160    1.5490    0.8260 hn        1 1AF      0.478300
     71 H83        -3.3690    0.4410    3.2740 hn        1 1AF      0.487133
     72 H273       -0.9240   15.7340    4.5580 hn        1 1AF      0.488467
     73 H282        0.1100   15.3000    1.0240 hn        1 1AF      0.479300
@<TRIPOS>BOND
     1    1    2 1   
     2    1    5 1   
     3    1   34 1   
     4    1   35 1   
     5    2    3 1   
     6    2   36 1   
     7    2   37 1   
     8    3    4 1   
     9    3   38 1   
    10    3   39 1   
    11    4    5 1   
    12    4   40 1   
    13    4   41 1   
    14    5    6 1   
    15    5   42 1   
    16    6    7 1   
    17    6   43 1   
    18    6   70 1   
    19    7    8 1   
    20    7    9 1   
    21    7   44 1   
    22    8   45 1   
    23    8   46 1   
    24    8   71 1   
    25    9   10 ar  
    26    9   12 ar  
    27   10   11 ar  
    28   10   47 1   
    29   11   14 ar  
    30   11   48 1   
    31   12   13 ar  
    32   12   49 1   
    33   13   14 ar  
    34   13   50 1   
    35   14   15 1   
    36   15   16 2   
    37   15   18 1   
    38   16   17 1   
    39   16   51 1   
    40   17   19 1   
    41   18   19 2   
    42   18   52 1   
    43   19   20 1   
    44   20   21 ar  
    45   20   23 ar  
    46   21   22 ar  
    47   21   53 1   
    48   22   25 ar  
    49   22   54 1   
    50   23   24 ar  
    51   23   55 1   
    52   24   25 ar  
    53   24   56 1   
    54   25   26 1   
    55   26   27 1   
    56   26   28 1   
    57   26   57 1   
    58   27   58 1   
    59   27   59 1   
    60   27   72 1   
    61   28   29 1   
    62   28   60 1   
    63   28   73 1   
    64   29   30 1   
    65   29   33 1   
    66   29   61 1   
    67   30   31 1   
    68   30   62 1   
    69   30   63 1   
    70   31   32 1   
    71   31   64 1   
    72   31   65 1   
    73   32   33 1   
    74   32   66 1   
    75   32   67 1   
    76   33   68 1   
    77   33   69 1   
@<TRIPOS>SUBSTRUCTURE
     1 1AF         1 TEMP              0 ****  ****    0 ROOT
