@<TRIPOS>MOLECULE
1AG
   65    64     1     0     0
SMALL
bcc


@<TRIPOS>ATOM
      1 C01        -1.8220   -1.2600   -0.4080 c         1 1AG      0.634100
      2 O01        -0.6570   -1.9090   -0.7190 os        1 1AG     -0.443900
      3 C02        -2.3060   -1.5810    0.9710 c3        1 1AG     -0.128400
      4 C03        -2.9840   -0.3840    1.6030 c3        1 1AG     -0.077400
      5 O03        -2.3240   -0.5260   -1.2600 o         1 1AG     -0.541000
      6 C04        -3.5860   -0.7550    2.9420 c3        1 1AG     -0.048200
      7 C05        -4.2440    0.4010    3.5950 c2        1 1AG     -0.177200
      8 C06        -4.9160    0.3200    4.7490 c2        1 1AG     -0.164200
      9 C07        -5.0970   -0.9410    5.5070 c3        1 1AG     -0.021000
     10 C08        -5.6610   -0.7410    6.8640 c2        1 1AG     -0.172200
     11 C09        -6.0940   -1.7390    7.6420 c2        1 1AG     -0.168200
     12 C10        -6.0840   -3.1650    7.2350 c3        1 1AG     -0.020000
     13 C11        -6.3660   -4.1010    8.3490 c2        1 1AG     -0.172200
     14 C12        -6.6130   -5.4050    8.1780 c2        1 1AG     -0.168200
     15 C13        -6.6550   -6.0670    6.8530 c3        1 1AG     -0.020000
     16 C14        -6.7150   -7.5470    6.9300 c2        1 1AG     -0.171200
     17 C15        -6.9490   -8.3340    5.8750 c2        1 1AG     -0.172200
     18 C16        -7.1910   -7.8260    4.5040 c3        1 1AG     -0.049200
     19 C17        -7.2920   -8.9440    3.4860 c3        1 1AG     -0.077400
     20 C18        -7.5360   -8.3980    2.0960 c3        1 1AG     -0.079400
     21 C19        -7.6390   -9.5130    1.0770 c3        1 1AG     -0.080400
     22 C20        -7.8830   -8.9740   -0.3090 c3        1 1AG     -0.093100
     23 C21        -0.1510   -1.7190   -2.0490 c3        1 1AG      0.138400
     24 C22         1.0690   -2.6350   -2.1650 c3        1 1AG      0.140100
     25 C23         2.2510   -1.8720   -2.7730 c3        1 1AG      0.092400
     26 O26         0.6860   -3.7110   -3.0090 oh        1 1AG     -0.599800
     27 O27         3.3040   -2.8160   -2.8920 oh        1 1AG     -0.610800
     28 H02        -3.0280   -2.4370    0.8800 hc        1 1AG      0.079700
     29 H02A       -1.4450   -1.9260    1.6020 hc        1 1AG      0.079700
     30 H03        -2.2380    0.4430    1.7380 hc        1 1AG      0.059700
     31 H03A       -3.7830    0.0000    0.9140 hc        1 1AG      0.059700
     32 H04        -2.7820   -1.1580    3.6180 hc        1 1AG      0.048200
     33 H04A       -4.3350   -1.5830    2.8020 hc        1 1AG      0.048200
     34 H05        -4.1520    1.3670    3.0720 ha        1 1AG      0.127000
     35 H06        -5.3820    1.2200    5.1820 ha        1 1AG      0.126000
     36 H07        -5.7690   -1.6290    4.9170 hc        1 1AG      0.055700
     37 H07A       -4.1060   -1.4720    5.5980 hc        1 1AG      0.055700
     38 H08        -5.7030    0.3000    7.2240 ha        1 1AG      0.125000
     39 H09        -6.4970   -1.5230    8.6450 ha        1 1AG      0.125000
     40 H10        -5.0820   -3.4220    6.7860 hc        1 1AG      0.055200
     41 H10A       -6.8440   -3.3160    6.4140 hc        1 1AG      0.055200
     42 H11        -6.3550   -3.6680    9.3630 ha        1 1AG      0.124000
     43 H12        -6.8080   -6.0490    9.0510 ha        1 1AG      0.125000
     44 H13        -7.5490   -5.6840    6.2800 hc        1 1AG      0.055700
     45 H13A       -5.7470   -5.7690    6.2530 hc        1 1AG      0.055700
     46 H14        -6.5450   -7.9890    7.9250 ha        1 1AG      0.123000
     47 H15        -6.9730   -9.4290    5.9940 ha        1 1AG      0.123000
     48 H16        -6.3610   -7.1250    4.2100 hc        1 1AG      0.047200
     49 H16A       -8.1400   -7.2230    4.4930 hc        1 1AG      0.047200
     50 H17        -8.1270   -9.6370    3.7710 hc        1 1AG      0.041700
     51 H17A       -6.3450   -9.5460    3.4940 hc        1 1AG      0.041700
     52 H18        -6.7000   -7.7060    1.8110 hc        1 1AG      0.039200
     53 H18A       -8.4820   -7.7950    2.0890 hc        1 1AG      0.039200
     54 H19        -8.4750  -10.2050    1.3650 hc        1 1AG      0.038700
     55 H19A       -6.6930  -10.1160    1.0870 hc        1 1AG      0.038700
     56 H20        -8.8340   -8.3900   -0.3440 hc        1 1AG      0.033033
     57 H20A       -7.0480   -8.3020   -0.6230 hc        1 1AG      0.033033
     58 H20B       -7.9560   -9.8120   -1.0440 hc        1 1AG      0.033033
     59 H21         0.1240   -0.6400   -2.1750 h1        1 1AG      0.068200
     60 H21A       -0.9420   -2.0000   -2.7920 h1        1 1AG      0.068200
     61 H22         1.3610   -3.0370   -1.1530 h1        1 1AG      0.069700
     62 H23         2.5600   -1.0320   -2.0980 h1        1 1AG      0.037700
     63 HO26        1.4760   -4.2530   -3.1380 ho        1 1AG      0.421000
     64 H37         4.0240   -2.3740   -3.3570 ho        1 1AG      0.410000
     65 H38         1.9770   -1.4670   -3.7830 h1        1 1AG      0.037700
@<TRIPOS>BOND
     1    1    2 1   
     2    1    3 1   
     3    1    5 2   
     4    2   23 1   
     5    3    4 1   
     6    3   28 1   
     7    3   29 1   
     8    4    6 1   
     9    4   30 1   
    10    4   31 1   
    11    6    7 1   
    12    6   32 1   
    13    6   33 1   
    14    7    8 2   
    15    7   34 1   
    16    8    9 1   
    17    8   35 1   
    18    9   10 1   
    19    9   36 1   
    20    9   37 1   
    21   10   11 2   
    22   10   38 1   
    23   11   12 1   
    24   11   39 1   
    25   12   13 1   
    26   12   40 1   
    27   12   41 1   
    28   13   14 2   
    29   13   42 1   
    30   14   15 1   
    31   14   43 1   
    32   15   16 1   
    33   15   44 1   
    34   15   45 1   
    35   16   17 2   
    36   16   46 1   
    37   17   18 1   
    38   17   47 1   
    39   18   19 1   
    40   18   48 1   
    41   18   49 1   
    42   19   20 1   
    43   19   50 1   
    44   19   51 1   
    45   20   21 1   
    46   20   52 1   
    47   20   53 1   
    48   21   22 1   
    49   21   54 1   
    50   21   55 1   
    51   22   56 1   
    52   22   57 1   
    53   22   58 1   
    54   23   24 1   
    55   23   59 1   
    56   23   60 1   
    57   24   25 1   
    58   24   26 1   
    59   24   61 1   
    60   25   27 1   
    61   25   62 1   
    62   25   65 1   
    63   26   63 1   
    64   27   64 1   
@<TRIPOS>SUBSTRUCTURE
     1 1AG         1 TEMP              0 ****  ****    0 ROOT
