@<TRIPOS>MOLECULE
molecule
   65    64     1     0     0
SMALL
bcc


@<TRIPOS>ATOM
      1 C01          0.0000     0.0000     0.0000 c          1 1AG       0.633100
      2 O01          1.3420     0.0000     0.0000 os         1 1AG      -0.426900
      3 C02         -0.7540     0.0000     1.3050 c3         1 1AG      -0.135400
      4 C03         -2.2580     0.0010     1.0250 c3         1 1AG      -0.081400
      5 O03         -0.6050     0.0060    -1.0470 o          1 1AG      -0.546000
      6 C04         -3.0240     0.0010     2.3490 c3         1 1AG       0.008800
      7 C05         -4.5050     0.0020     2.0730 c2         1 1AG      -0.215200
      8 C06         -5.2770    -0.8970     2.6340 c2         1 1AG      -0.197200
      9 C07         -4.7150    -1.8260     3.6790 c3         1 1AG       0.258000
     10 C08         -5.5620    -1.7520     4.9230 c2         1 1AG      -0.176200
     11 C09         -6.0350    -2.8510     5.4580 c2         1 1AG      -0.182200
     12 C10         -5.6020    -4.1940     4.9310 c3         1 1AG       0.238000
     13 C11         -5.0810    -5.0350     6.0670 c2         1 1AG      -0.193200
     14 C12         -5.5660    -6.2360     6.2700 c2         1 1AG      -0.209200
     15 C13         -6.5150    -6.8430     5.2690 c3         1 1AG       0.026000
     16 C14         -6.0040    -8.1990     4.8520 c2         1 1AG      -0.272200
     17 C15         -6.7840    -9.2480     4.9440 c2         1 1AG      -0.171200
     18 C16         -8.2360    -9.0790     5.3080 c3         1 1AG      -0.084200
     19 C17         -9.1070    -9.7930     4.2720 c3         1 1AG      -0.075400
     20 C18        -10.5820    -9.6210     4.6420 c3         1 1AG      -0.091400
     21 C19        -11.4540   -10.3340     3.6060 c3         1 1AG      -0.082400
     22 C20        -12.9290   -10.1630     3.9770 c3         1 1AG      -0.092100
     23 C21          2.0020     0.0000    -1.2930 c3         1 1AG       0.136400
     24 C22          3.5190    -0.0020    -1.0920 c3         1 1AG       0.149100
     25 C23          4.2130     0.1250    -2.4500 c3         1 1AG       0.131400
     26 O26          3.9150    -1.2230    -0.4660 oh         1 1AG      -0.591800
     27 O27          5.6230     0.2410    -2.2540 oh         1 1AG      -0.605800
     28 H02         -0.4930    -0.8850     1.8720 hc         1 1AG       0.070200
     29 H02A        -0.4920     0.8840     1.8730 hc         1 1AG       0.070200
     30 H03         -2.5200    -0.8830     0.4560 hc         1 1AG       0.072700
     31 H03A        -2.5190     0.8860     0.4570 hc         1 1AG       0.072700
     32 H04         -2.7630    -0.8850     2.9170 hc         1 1AG       0.043700
     33 H04A        -2.7620     0.8840     2.9180 hc         1 1AG       0.043700
     34 H05         -4.1000     0.4860     2.9540 ha         1 1AG       0.119000
     35 H06         -4.7540    -1.8030     2.3530 ha         1 1AG      -0.007000
     36 H07         -4.7180    -2.8410     3.3000 hc         1 1AG       0.049700
     37 H07A        -3.6990    -1.5320     3.9160 hc         1 1AG       0.049700
     38 H08         -4.4980    -1.9510     4.9810 ha         1 1AG       0.030000
     39 H09         -6.5150    -3.2940     4.5950 ha         1 1AG       0.034000
     40 H10         -4.8200    -4.0580     4.1940 hc         1 1AG       0.052700
     41 H10A        -6.4480    -4.6920     4.4720 hc         1 1AG       0.052700
     42 H11         -4.6870    -5.1500     5.0640 ha         1 1AG       0.020000
     43 H12         -6.6260    -6.0160     6.3040 ha         1 1AG       0.077000
     44 H13         -7.4950    -6.9490     5.7180 hc         1 1AG       0.067700
     45 H13A        -6.5840    -6.2010     4.4000 hc         1 1AG       0.067700
     46 H14         -6.2370    -7.8560     5.8530 ha         1 1AG       0.187000
     47 H15         -7.0960    -9.1660     5.9780 ha         1 1AG       0.153000
     48 H16         -8.4840    -8.0240     5.3240 hc         1 1AG       0.045200
     49 H16A        -8.4150    -9.5060     6.2870 hc         1 1AG       0.045200
     50 H17         -8.9280    -9.3660     3.2930 hc         1 1AG       0.054700
     51 H17A        -8.8590   -10.8480     4.2570 hc         1 1AG       0.054700
     52 H18        -10.8300    -8.5660     4.6570 hc         1 1AG       0.038700
     53 H18A       -10.7620   -10.0480     5.6210 hc         1 1AG       0.038700
     54 H19        -11.2060   -11.3890     3.5900 hc         1 1AG       0.042200
     55 H19A       -11.2760    -9.9060     2.6270 hc         1 1AG       0.042200
     56 H20        -13.1080   -10.5920     4.9550 hc         1 1AG       0.033700
     57 H20A       -13.1770    -9.1090     3.9940 hc         1 1AG       0.033700
     58 H20B       -13.5470   -10.6670     3.2430 hc         1 1AG       0.033700
     59 H21          1.7100    -0.8840    -1.8480 h1         1 1AG       0.060200
     60 H21A         1.7120     0.8850    -1.8460 h1         1 1AG       0.060200
     61 H22          3.8000     0.8350    -0.4640 h1         1 1AG       0.053700
     62 H23          3.8460     1.0060    -2.9630 h1         1 1AG       0.032700
     63 HO26         4.3450    -1.0320     0.3520 ho         1 1AG       0.413000
     64 H37          6.0440     0.4010    -3.0830 ho         1 1AG       0.408000
     65 H38          4.0020    -0.7540    -3.0470 h1         1 1AG       0.032700
@<TRIPOS>BOND
     1     1     2 1   
     2     1     3 1   
     3     1     5 2   
     4     2    23 1   
     5     3     4 1   
     6     3    28 1   
     7     3    29 1   
     8     4     6 1   
     9     4    30 1   
    10     4    31 1   
    11     6     7 1   
    12     6    32 1   
    13     6    33 1   
    14     7     8 2   
    15     7    34 1   
    16     8     9 1   
    17     8    35 1   
    18     9    10 1   
    19     9    36 1   
    20     9    37 1   
    21    10    11 2   
    22    10    38 1   
    23    11    12 1   
    24    11    39 1   
    25    12    13 1   
    26    12    40 1   
    27    12    41 1   
    28    13    14 2   
    29    13    42 1   
    30    14    15 1   
    31    14    43 1   
    32    15    16 1   
    33    15    44 1   
    34    15    45 1   
    35    16    17 2   
    36    16    46 1   
    37    17    18 1   
    38    17    47 1   
    39    18    19 1   
    40    18    48 1   
    41    18    49 1   
    42    19    20 1   
    43    19    50 1   
    44    19    51 1   
    45    20    21 1   
    46    20    52 1   
    47    20    53 1   
    48    21    22 1   
    49    21    54 1   
    50    21    55 1   
    51    22    56 1   
    52    22    57 1   
    53    22    58 1   
    54    23    24 1   
    55    23    59 1   
    56    23    60 1   
    57    24    25 1   
    58    24    26 1   
    59    24    61 1   
    60    25    27 1   
    61    25    62 1   
    62    26    63 1   
    63    27    64 1   
    64    25    65 1   
@<TRIPOS>SUBSTRUCTURE
     1 1AG         1 TEMP              0 ****  ****    0 ROOT
