@<TRIPOS>MOLECULE
molecule
   65    64     1     0     0
SMALL
bcc


@<TRIPOS>ATOM
      1 C01          0.0000     0.0000     0.0000 c          1 1AG       0.636100
      2 O01          1.2470     0.0000     0.0000 os         1 1AG      -0.437900
      3 C02         -0.7050     0.0000     1.2700 c3         1 1AG      -0.128400
      4 C03         -0.4780     1.2730     2.1400 c3         1 1AG      -0.081400
      5 O03         -0.6430    -0.0300    -1.0440 o          1 1AG      -0.549000
      6 C04         -1.2660     1.1780     3.4770 c3         1 1AG      -0.135200
      7 C05         -1.1960     2.3830     4.2980 c2         1 1AG       0.188800
      8 C06         -2.1470     3.3280     4.4450 c2         1 1AG      -0.505200
      9 C07         -3.4270     3.4120     3.7410 c3         1 1AG       0.094000
     10 C08         -4.4530     4.2000     4.4190 c2         1 1AG      -0.499200
     11 C09         -5.5800     4.6930     3.8700 c2         1 1AG       0.191800
     12 C10         -6.0030     4.6100     2.4750 c3         1 1AG      -0.190000
     13 C11         -6.3460     5.9290     1.9510 c2         1 1AG       0.174800
     14 C12         -7.4790     6.2940     1.3170 c2         1 1AG      -0.486200
     15 C13         -8.5940     5.4220     0.9580 c3         1 1AG       0.040000
     16 C14         -9.8380     6.1150     0.6230 c2         1 1AG      -0.182200
     17 C15        -10.8730     5.6210    -0.0870 c2         1 1AG      -0.162200
     18 C16        -10.9410     4.3410    -0.7810 c3         1 1AG      -0.049200
     19 C17        -11.8250     3.2700    -0.0850 c3         1 1AG      -0.076400
     20 C18        -11.7200     1.9090    -0.8340 c3         1 1AG      -0.080400
     21 C19        -12.6900     0.8170    -0.3130 c3         1 1AG      -0.080400
     22 C20        -12.5710    -0.5060    -1.1070 c3         1 1AG      -0.093100
     23 C21          2.1160    -0.0680    -1.0240 c3         1 1AG       0.142400
     24 C22          3.5640    -0.0170    -0.4740 c3         1 1AG       0.134100
     25 C23          4.6540    -0.0420    -1.5720 c3         1 1AG       0.099400
     26 O26          3.7870    -1.1160     0.4080 oh         1 1AG      -0.593800
     27 O27          4.5330     1.0620    -2.4630 oh         1 1AG      -0.599800
     28 H02         -0.3840    -0.8640     1.8390 hc         1 1AG       0.079200
     29 H02A        -1.7660    -0.0940     1.0720 hc         1 1AG       0.079200
     30 H03         -0.8140     2.1440     1.5900 hc         1 1AG       0.054700
     31 H03A         0.5790     1.3740     2.3550 hc         1 1AG       0.054700
     32 H04         -2.3060     0.9760     3.2510 hc         1 1AG       0.037700
     33 H04A        -0.8700     0.3490     4.0510 hc         1 1AG       0.037700
     34 H05         -1.9810     2.0970     3.6080 ha         1 1AG       0.088000
     35 H06         -2.5400     2.6450     3.7010 ha         1 1AG       0.199000
     36 H07         -3.2510     3.8490     2.7660 hc         1 1AG       0.060700
     37 H07A        -3.8070     2.4060     3.6020 hc         1 1AG       0.060700
     38 H08         -4.3990     3.9350     3.3700 ha         1 1AG       0.195000
     39 H09         -5.0560     4.2160     3.0510 ha         1 1AG       0.070000
     40 H10         -5.1970     4.1920     1.8840 hc         1 1AG       0.029200
     41 H10A        -6.8690     3.9630     2.4040 hc         1 1AG       0.029200
     42 H11         -6.9230     5.0160     1.8650 ha         1 1AG       0.075000
     43 H12         -7.5820     5.2310     1.5010 ha         1 1AG       0.194000
     44 H13         -8.7880     4.7570     1.7910 hc         1 1AG       0.052200
     45 H13A        -8.2970     4.8230     0.1050 hc         1 1AG       0.052200
     46 H14         -9.9660     7.0950     1.0670 ha         1 1AG       0.128000
     47 H15        -10.1100     4.8530    -0.1310 ha         1 1AG       0.124000
     48 H16        -11.3320     4.5120    -1.7760 hc         1 1AG       0.048200
     49 H16A        -9.9360     3.9470    -0.8710 hc         1 1AG       0.048200
     50 H17        -11.4940     3.1420     0.9380 hc         1 1AG       0.042200
     51 H17A       -12.8570     3.6010    -0.0880 hc         1 1AG       0.042200
     52 H18        -10.7050     1.5420    -0.7350 hc         1 1AG       0.039700
     53 H18A       -11.9250     2.0780    -1.8840 hc         1 1AG       0.039700
     54 H19        -12.4710     0.6210     0.7290 hc         1 1AG       0.038700
     55 H19A       -13.7060     1.1840    -0.3940 hc         1 1AG       0.038700
     56 H20        -13.2650    -1.2340    -0.7040 hc         1 1AG       0.033367
     57 H20A       -12.8040    -0.3250    -2.1500 hc         1 1AG       0.033367
     58 H20B       -11.5600    -0.8870    -1.0240 hc         1 1AG       0.033367
     59 H21          1.9660    -0.9960    -1.5630 h1         1 1AG       0.070700
     60 H21A         1.9530     0.7680    -1.6920 h1         1 1AG       0.070700
     61 H22          3.6770     0.9000     0.0920 h1         1 1AG       0.071700
     62 H23          5.6290    -0.0100    -1.1010 h1         1 1AG       0.032700
     63 HO26         4.5690    -0.9610     0.9120 ho         1 1AG       0.404000
     64 H37          5.3060     1.1190    -3.0000 ho         1 1AG       0.407000
     65 H38          4.5640    -0.9620    -2.1370 h1         1 1AG       0.032700
@<TRIPOS>BOND
     1     1     2 1   
     2     1     3 1   
     3     1     5 2   
     4     2    23 1   
     5     3     4 1   
     6     3    28 1   
     7     3    29 1   
     8     4     6 1   
     9     4    30 1   
    10     4    31 1   
    11     6     7 1   
    12     6    32 1   
    13     6    33 1   
    14     7     8 2   
    15     7    34 1   
    16     8     9 1   
    17     8    35 1   
    18     9    10 1   
    19     9    36 1   
    20     9    37 1   
    21    10    11 2   
    22    10    38 1   
    23    11    12 1   
    24    11    39 1   
    25    12    13 1   
    26    12    40 1   
    27    12    41 1   
    28    13    14 2   
    29    13    42 1   
    30    14    15 1   
    31    14    43 1   
    32    15    16 1   
    33    15    44 1   
    34    15    45 1   
    35    16    17 2   
    36    16    46 1   
    37    17    18 1   
    38    17    47 1   
    39    18    19 1   
    40    18    48 1   
    41    18    49 1   
    42    19    20 1   
    43    19    50 1   
    44    19    51 1   
    45    20    21 1   
    46    20    52 1   
    47    20    53 1   
    48    21    22 1   
    49    21    54 1   
    50    21    55 1   
    51    22    56 1   
    52    22    57 1   
    53    22    58 1   
    54    23    24 1   
    55    23    59 1   
    56    23    60 1   
    57    24    25 1   
    58    24    26 1   
    59    24    61 1   
    60    25    27 1   
    61    25    62 1   
    62    26    63 1   
    63    27    64 1   
    64    25    65 1   
@<TRIPOS>SUBSTRUCTURE
     1 1AG         1 TEMP              0 ****  ****    0 ROOT
