@<TRIPOS>MOLECULE
molecule
   86    89     1     0     0
SMALL
bcc


@<TRIPOS>ATOM
      1 C23          0.0000     0.0000     0.0000 ca         1 1AH      -0.087300
      2 C24          1.3830     0.0000     0.0000 ca         1 1AH      -0.125000
      3 C25          2.0730     0.0000     1.1980 ca         1 1AH      -0.132000
      4 C26          1.3820     0.0000     2.3950 ca         1 1AH      -0.129000
      5 C27         -0.0010     0.0000     2.3940 ca         1 1AH      -0.132000
      6 C28         -0.6910     0.0050     1.1970 ca         1 1AH      -0.125000
      7 C33          0.3590    -4.2640    -3.9300 ca         1 1AH      -0.059300
      8 C34          0.0510    -4.3060    -5.2770 ca         1 1AH      -0.114000
      9 C35         -0.8630    -5.2300    -5.7480 ca         1 1AH      -0.099000
     10 C36         -1.4680    -6.1120    -4.8720 ca         1 1AH      -0.015900
     11 C37         -1.1590    -6.0690    -3.5240 ca         1 1AH      -0.099000
     12 C38         -0.2420    -5.1490    -3.0550 ca         1 1AH      -0.114000
     13 C32          1.3560    -3.2560    -3.4160 c3         1 1AH       0.121100
     14 C7          -1.9350     3.5050    -6.6400 c3         1 1AH       0.167700
     15 C4          -0.0660    -2.3580    -1.7640 c3         1 1AH       0.083800
     16 O3          -1.0920     0.9930    -6.1920 o          1 1AH      -0.614000
     17 N1           0.6290     1.5480    -4.9050 ns         1 1AH      -0.558900
     18 C22         -0.7530     0.0000    -1.3050 c3         1 1AH      -0.027100
     19 O6          -2.0800    -1.8620    -0.5220 oh         1 1AH      -0.593800
     20 O8          -0.7810     3.1600    -5.8290 os         1 1AH      -0.451900
     21 C10         -2.0660    -1.4000    -2.8750 c          1 1AH       0.639100
     22 O11         -1.5850    -1.8290    -3.9030 o          1 1AH      -0.590100
     23 N12         -3.3220    -0.9130    -2.8710 ns         1 1AH      -0.556900
     24 C51         -4.1070    -0.9000    -4.1080 c3         1 1AH       0.173000
     25 C52         -4.8480    -2.2100    -4.2740 ca         1 1AH      -0.100300
     26 C57         -6.1470    -1.9630    -4.6800 ca         1 1AH      -0.087300
     27 C53         -4.4230    -3.5130    -4.0820 ca         1 1AH      -0.092000
     28 C54         -5.2890    -4.5660    -4.2960 ca         1 1AH      -0.131000
     29 C55         -6.5870    -4.3200    -4.7030 ca         1 1AH      -0.125000
     30 C59         -5.2070     0.1810    -4.0340 c3         1 1AH       0.133100
     31 O60         -5.5830     0.4310    -2.6780 oh         1 1AH      -0.601800
     32 C30         -0.4370     1.8690    -5.6630 c          1 1AH       0.753100
     33 C56         -7.0140    -3.0210    -4.8960 ca         1 1AH      -0.117000
     34 C58         -6.3660    -0.4710    -4.8180 c3         1 1AH      -0.062100
     35 C41          1.0000     0.1430    -4.7170 c3         1 1AH       0.068700
     36 C42          1.8770    -0.3140    -5.8850 c3         1 1AH      -0.071000
     37 C43          3.0990     0.6010    -5.9930 c3         1 1AH      -0.094100
     38 C1          -1.2590    -1.4130    -1.6030 c3         1 1AH       0.094800
     39 C44          2.3370    -1.7520    -5.6450 c3         1 1AH      -0.094100
     40 C45          1.7630    -0.0080    -3.4270 c          1 1AH       0.681100
     41 O46          2.5160     0.8690    -3.0610 o          1 1AH      -0.609100
     42 N47          1.6090    -1.1190    -2.6780 ns         1 1AH      -0.490300
     43 Br          -2.7170    -7.3770    -5.5170 br         1 1AH      -0.097100
     44 C86          1.0730    -0.2460    -7.1850 c3         1 1AH      -0.094100
     45 H24          1.9250    -0.0020    -0.9380 ha         1 1AH       0.143500
     46 H25          3.1570    -0.0000     1.1990 ha         1 1AH       0.130000
     47 H26          1.9230    -0.0020     3.3340 ha         1 1AH       0.128000
     48 H27         -0.5430     0.0020     3.3320 ha         1 1AH       0.130000
     49 H28         -1.7750     0.0050     1.1970 ha         1 1AH       0.143500
     50 H34          0.5240    -3.6130    -5.9630 ha         1 1AH       0.138500
     51 H35         -1.1050    -5.2630    -6.8030 ha         1 1AH       0.145000
     52 H37         -1.6320    -6.7620    -2.8380 ha         1 1AH       0.145000
     53 H38          0.0000    -5.1160    -1.9990 ha         1 1AH       0.138500
     54 H321         1.8830    -3.6710    -2.5660 h1         1 1AH       0.065200
     55 H322         2.0650    -3.0170    -4.1990 h1         1 1AH       0.065200
     56 H7C1        -1.9460     4.5740    -6.8160 h1         1 1AH       0.046033
     57 H7C2        -2.8410     3.2150    -6.1220 h1         1 1AH       0.046033
     58 H7C3        -1.8790     2.9840    -7.5890 h1         1 1AH       0.046033
     59 H4C1        -0.4190    -3.3810    -1.8070 h1         1 1AH       0.065700
     60 H4C2         0.6030    -2.2420    -0.9210 h1         1 1AH       0.065700
     61 H1           1.1530     2.2680    -4.4480 hn         1 1AH       0.338500
     62 H221        -1.5950     0.6780    -1.2360 hc         1 1AH       0.069700
     63 H222        -0.0940     0.3230    -2.1020 hc         1 1AH       0.069700
     64 H6          -1.9470    -2.7860    -0.3900 ho         1 1AH       0.410000
     65 H12         -3.7180    -0.5560    -2.0240 hn         1 1AH       0.343500
     66 H51         -3.4670    -0.7220    -4.9640 h1         1 1AH       0.107700
     67 H53         -3.4060    -3.7070    -3.7630 ha         1 1AH       0.139000
     68 H54         -4.9520    -5.5840    -4.1450 ha         1 1AH       0.133000
     69 H55         -7.2680    -5.1450    -4.8720 ha         1 1AH       0.128000
     70 H59         -4.8810     1.0900    -4.5230 h1         1 1AH       0.047700
     71 H60         -6.0380     1.2550    -2.6250 ho         1 1AH       0.407000
     72 H56         -8.0310    -2.8280    -5.2150 ha         1 1AH       0.125000
     73 H581        -6.3220    -0.1810    -5.8610 hc         1 1AH       0.060200
     74 H582        -7.3170    -0.1910    -4.3820 hc         1 1AH       0.060200
     75 H41          0.1030    -0.4640    -4.6800 h1         1 1AH       0.135700
     76 H431         2.7730     1.6320    -6.0550 hc         1 1AH       0.043811
     77 H432         3.6630     0.3460    -6.8820 hc         1 1AH       0.043811
     78 H433         3.7250     0.4720    -5.1190 hc         1 1AH       0.043811
     79 H441         1.4730    -2.3870    -5.4870 hc         1 1AH       0.043811
     80 H442         2.8900    -2.1040    -6.5070 hc         1 1AH       0.043811
     81 H443         2.9750    -1.7860    -4.7690 hc         1 1AH       0.043811
     82 H47          2.2440    -1.3070    -1.9280 hn         1 1AH       0.320500
     83 H861         0.0840    -0.6560    -7.0190 hc         1 1AH       0.043811
     84 H862         0.9860     0.7860    -7.5020 hc         1 1AH       0.043811
     85 H863         1.5780    -0.8190    -7.9530 hc         1 1AH       0.043811
     86 N24          0.6500    -2.0350    -3.0060 n3         1 1AH      -0.356600
@<TRIPOS>BOND
     1     1     2 ar
     2     1     6 ar
     3     1    18 1
     4     2     3 ar
     5     2    45 1
     6     3     4 ar
     7     3    46 1
     8     4     5 ar
     9     4    47 1
    10     5     6 ar
    11     5    48 1
    12     6    49 1
    13     7     8 ar
    14     7    12 ar
    15     7    13 1
    16     8     9 ar
    17     8    50 1
    18     9    10 ar
    19     9    51 1
    20    10    11 ar
    21    10    43 1
    22    11    12 ar
    23    11    52 1
    24    12    53 1
    25    13    86 1
    26    13    54 1
    27    13    55 1
    28    14    20 1
    29    14    56 1
    30    14    57 1
    31    14    58 1
    32    15    38 1
    33    15    86 1
    34    15    59 1
    35    15    60 1
    36    16    32 2
    37    17    32 1
    38    17    35 1
    39    17    61 1
    40    18    38 1
    41    18    62 1
    42    18    63 1
    43    19    38 1
    44    19    64 1
    45    20    32 1
    46    21    22 2
    47    21    23 1
    48    21    38 1
    49    23    24 1
    50    23    65 1
    51    24    25 1
    52    24    30 1
    53    24    66 1
    54    25    26 ar
    55    25    27 ar
    56    26    33 ar
    57    26    34 1
    58    27    28 ar
    59    27    67 1
    60    28    29 ar
    61    28    68 1
    62    29    33 ar
    63    29    69 1
    64    30    31 1
    65    30    34 1
    66    30    70 1
    67    31    71 1
    68    33    72 1
    69    34    73 1
    70    34    74 1
    71    35    36 1
    72    35    40 1
    73    35    75 1
    74    36    37 1
    75    36    39 1
    76    36    44 1
    77    37    76 1
    78    37    77 1
    79    37    78 1
    80    39    79 1
    81    39    80 1
    82    39    81 1
    83    40    41 2
    84    40    42 1
    85    86    42 1
    86    42    82 1
    87    44    83 1
    88    44    84 1
    89    44    85 1
@<TRIPOS>SUBSTRUCTURE
     1 1AH         1 TEMP              0 ****  ****    0 ROOT
