@<TRIPOS>MOLECULE
1AH
   90    93     1     0     0
SMALL
bcc


@<TRIPOS>ATOM
      1 C23         -1.9020     0.4990     0.5020 ca         1 1AH      -0.217300
      2 C24         -0.9740     0.3440     1.5440 ca         1 1AH      -0.141000
      3 C25         -1.3540     0.5870     2.8640 ca         1 1AH      -0.091500
      4 C26         -2.6610     0.9850     3.1570 ca         1 1AH      -0.059000
      5 C27         -3.5890     1.1390     2.1230 ca         1 1AH      -0.091500
      6 C28         -3.2150     0.8900     0.8040 ca         1 1AH      -0.141000
      7 C33         -3.9060     1.6430    -5.2370 ca         1 1AH      -0.273300
      8 C34         -4.8990     2.0800    -4.3290 ca         1 1AH      -0.073500
      9 C35         -6.2350     2.1020    -4.7000 ca         1 1AH      -0.106500
     10 C36         -6.6260     1.6860    -5.9870 ca         1 1AH       0.078100
     11 C37         -5.6360     1.2340    -6.8900 ca         1 1AH      -0.106500
     12 C38         -4.3040     1.2090    -6.5220 ca         1 1AH      -0.073500
     13 C32         -2.5050     1.7860    -4.8910 c3         1 1AH       0.237100
     14 C7          -1.7440    -0.6130   -10.8130 c3         1 1AH       0.139700
     15 C4          -0.8100     0.7730    -3.2320 c3         1 1AH       0.084800
     16 O3          -1.8450    -0.5800    -7.9620 o          1 1AH      -0.549000
     17 N1          -0.0700    -2.1240    -7.8400 ny         1 1AH      -0.661800
     18 C22         -1.5370     0.0970    -0.8800 c3         1 1AH      -0.056100
     19 O6          -2.1680     2.2430    -1.9220 oh         1 1AH      -0.619800
     20 O8          -0.8810    -1.3910    -9.9130 os         1 1AH      -0.330900
     21 C10          0.1550     1.9200    -1.2560 c          1 1AH       0.522100
     22 O11          1.2520     1.5650    -1.6720 o          1 1AH      -0.410100
     23 N12          0.0290     2.9340    -0.1930 ny         1 1AH      -0.653800
     24 C51          1.3160     3.6860     0.1480 c3         1 1AH       0.198800
     25 C52          1.5240     4.8460    -0.7690 ca         1 1AH      -0.221300
     26 C57          1.4170     6.0720    -0.0720 ca         1 1AH      -0.033300
     27 C53          1.8890     4.8220    -2.1110 ca         1 1AH      -0.101000
     28 C54          2.1150     6.0340    -2.7670 ca         1 1AH      -0.128000
     29 C55          1.9880     7.2480    -2.0840 ca         1 1AH      -0.051000
     30 C59          1.2590     4.3390     1.5850 c3         1 1AH       0.140100
     31 O60          0.1680     3.7980     2.3030 oh         1 1AH      -0.656800
     32 C30         -1.0490    -1.2620    -8.6100 c          1 1AH       0.661100
     33 C56          1.6420     7.2760    -0.7280 ca         1 1AH      -0.095000
     34 C58          1.1290     5.8590     1.3720 c3         1 1AH      -0.088100
     35 C41         -0.5100    -2.3090    -6.4180 c3         1 1AH       0.079500
     36 C42          0.4650    -3.2520    -5.6200 c3         1 1AH      -0.044000
     37 C43          0.3440    -4.6530    -6.2050 c3         1 1AH      -0.137433
     38 C1          -1.1520     1.2780    -1.7890 c3         1 1AH       0.075800
     39 C44         -0.0120    -3.2630    -4.1770 c3         1 1AH      -0.137433
     40 C45         -0.6030    -0.9370    -5.7240 c          1 1AH       0.553100
     41 O46          0.2130    -0.0410    -5.7460 o          1 1AH      -0.347100
     42 N47         -1.9110    -0.7090    -4.9220 ny         1 1AH      -0.520600
     43 Br          -8.4020     1.7460    -6.4990 br         1 1AH       0.120900
     44 C86          1.8990    -2.7670    -5.7100 c3         1 1AH      -0.137433
     45 N24         -2.0260     0.4690    -4.0740 nx         1 1AH      -0.549200
     46 H24          0.0440    -0.0220     1.3350 ha         1 1AH       0.131000
     47 H25         -0.6260     0.4420     3.6810 ha         1 1AH       0.182000
     48 H26         -2.9660     1.1570     4.2050 ha         1 1AH       0.192000
     49 H27         -4.6270     1.4360     2.3570 ha         1 1AH       0.182000
     50 H28         -3.9740     0.9560     0.0100 ha         1 1AH       0.131000
     51 H34         -4.6040     2.4450    -3.3300 ha         1 1AH       0.147000
     52 H35         -6.9970     2.4700    -3.9850 ha         1 1AH       0.201500
     53 H37         -5.9340     0.9210    -7.9100 ha         1 1AH       0.201500
     54 H38         -3.5430     0.9030    -7.2610 ha         1 1AH       0.147000
     55 H321        -2.3190     2.5990    -4.1270 hx         1 1AH       0.138700
     56 H322        -1.8050     1.8760    -5.7650 hx         1 1AH       0.138700
     57 H7C1        -1.3420    -0.9510   -11.8110 h1         1 1AH       0.119367
     58 H7C2        -1.5750     0.4730   -10.6290 h1         1 1AH       0.119367
     59 H7C3        -2.8040    -0.9210   -10.6530 h1         1 1AH       0.119367
     60 H4C1        -0.2170     1.5640    -3.7830 hx         1 1AH       0.137200
     61 H4C2        -0.1520    -0.1370    -3.1090 hx         1 1AH       0.137200
     62 H1           0.0010    -3.0620    -8.2880 hn         1 1AH       0.517800
     63 H221        -2.4130    -0.4270    -1.3490 hc         1 1AH       0.073700
     64 H222        -0.6730    -0.6230    -0.8480 hc         1 1AH       0.073700
     65 H6          -2.6900     2.2760    -1.0960 ho         1 1AH       0.482000
     66 H12         -0.3010     2.4590     0.6770 hn         1 1AH       0.489800
     67 H51          2.1510     2.9300     0.0960 hx         1 1AH       0.129700
     68 H53          2.0350     3.8680    -2.6360 ha         1 1AH       0.116000
     69 H54          2.4240     6.0370    -3.8240 ha         1 1AH       0.160000
     70 H55          2.1830     8.1980    -2.6140 ha         1 1AH       0.181000
     71 H59          2.2280     4.0850     2.1010 h1         1 1AH       0.106700
     72 H60          0.1860     4.1830     3.1930 ho         1 1AH       0.475000
     73 H56          1.5710     8.2350    -0.1880 ha         1 1AH       0.184000
     74 H581         1.8660     6.4090     2.0170 hc         1 1AH       0.107700
     75 H582         0.1020     6.2190     1.6460 hc         1 1AH       0.107700
     76 H41         -1.5270    -2.8120    -6.4570 hx         1 1AH       0.145700
     77 H431        -0.7180    -4.9960    -6.2400 hc         1 1AH       0.081922
     78 H432         0.7980    -4.7230    -7.2230 hc         1 1AH       0.081922
     79 H433         0.9110    -5.3710    -5.5510 hc         1 1AH       0.081922
     80 H441         0.5980    -4.0110    -3.5980 hc         1 1AH       0.081922
     81 H442        -1.0800    -3.5810    -4.0990 hc         1 1AH       0.081922
     82 H443         0.1380    -2.2670    -3.6950 hc         1 1AH       0.081922
     83 H47         -2.0770    -1.5670    -4.3580 hn         1 1AH       0.506800
     84 H861         1.9830    -1.6750    -5.4900 hc         1 1AH       0.081922
     85 H862         2.5240    -3.3180    -4.9550 hc         1 1AH       0.081922
     86 H863         2.3520    -2.9840    -6.7090 hc         1 1AH       0.081922
     87 H121         0.8730    -1.6930    -7.8780 hn         1 1AH       0.517800
     88 H122        -0.6800     3.6290    -0.4690 hn         1 1AH       0.489800
     89 H472        -2.6720    -0.6130    -5.6430 hn         1 1AH       0.506800
     90 H241        -2.8210     0.2780    -3.4190 hn         1 1AH       0.475800
@<TRIPOS>BOND
     1     1     2 ar  
     2     1     6 ar  
     3     1    18 1   
     4     2     3 ar  
     5     2    46 1   
     6     3     4 ar  
     7     3    47 1   
     8     4     5 ar  
     9     4    48 1   
    10     5     6 ar  
    11     5    49 1   
    12     6    50 1   
    13     7     8 ar  
    14     7    12 ar  
    15     7    13 1   
    16     8     9 ar  
    17     8    51 1   
    18     9    10 ar  
    19     9    52 1   
    20    10    11 ar  
    21    10    43 1   
    22    11    12 ar  
    23    11    53 1   
    24    12    54 1   
    25    13    45 1   
    26    13    55 1   
    27    13    56 1   
    28    14    20 1   
    29    14    57 1   
    30    14    58 1   
    31    14    59 1   
    32    15    38 1   
    33    15    45 1   
    34    15    60 1   
    35    15    61 1   
    36    16    32 2   
    37    17    32 1   
    38    17    35 1   
    39    17    62 1   
    40    17    87 1   
    41    18    38 1   
    42    18    63 1   
    43    18    64 1   
    44    19    38 1   
    45    19    65 1   
    46    20    32 1   
    47    21    22 2   
    48    21    23 1   
    49    21    38 1   
    50    23    24 1   
    51    23    66 1   
    52    23    88 1   
    53    24    25 1   
    54    24    30 1   
    55    24    67 1   
    56    25    26 ar  
    57    25    27 ar  
    58    26    33 ar  
    59    26    34 1   
    60    27    28 ar  
    61    27    68 1   
    62    28    29 ar  
    63    28    69 1   
    64    29    33 ar  
    65    29    70 1   
    66    30    31 1   
    67    30    34 1   
    68    30    71 1   
    69    31    72 1   
    70    33    73 1   
    71    34    74 1   
    72    34    75 1   
    73    35    36 1   
    74    35    40 1   
    75    35    76 1   
    76    36    37 1   
    77    36    39 1   
    78    36    44 1   
    79    37    77 1   
    80    37    78 1   
    81    37    79 1   
    82    39    80 1   
    83    39    81 1   
    84    39    82 1   
    85    40    41 2   
    86    40    42 1   
    87    42    45 1   
    88    42    83 1   
    89    42    89 1   
    90    44    84 1   
    91    44    85 1   
    92    44    86 1   
    93    45    90 1   
@<TRIPOS>SUBSTRUCTURE
     1 1AH         1 TEMP              0 ****  ****    0 ROOT
