@<TRIPOS>MOLECULE
1AJ
   27    29     1     0     0
SMALL
bcc


@<TRIPOS>ATOM
      1 CAH          0.0000     0.0000     0.0000 c3         1 1AJ       0.055000
      2 CAG          1.5310     0.0000     0.0000 c3         1 1AJ       0.052900
      3 CAN          2.0260     0.0000     1.4310 cc         1 1AJ       0.016600
      4 SAK          3.6480    -0.4500     1.9400 ss         1 1AJ      -0.259800
      5 CAC          3.2460    -0.1330     3.6210 cc         1 1AJ       0.012900
      6 CAD          1.9820     0.2700     3.7090 cd         1 1AJ      -0.114000
      7 CAM          1.2900     0.3450     2.5040 cd         1 1AJ      -0.146300
      8 CAI         -0.1700     0.7710     2.3970 c3         1 1AJ       0.091300
      9 NAO         -0.4690     0.9960     0.9760 n          1 1AJ      -0.151800
     10 CAL         -1.1540     2.0860     0.5770 c          1 1AJ       0.469900
     11 OAA         -1.2880     2.3190    -0.6080 o          1 1AJ      -0.641100
     12 NAP         -1.6890     2.9170     1.4930 n          1 1AJ       0.295000
     13 CAE         -1.9640     4.2540     1.3220 cc         1 1AJ      -0.363600
     14 CAB         -2.4880     4.6930     2.4800 cd         1 1AJ       0.318200
     15 NAJ         -2.5360     3.6620     3.3400 nd         1 1AJ      -0.591000
     16 CAF         -2.0670     2.5930     2.7620 cc         1 1AJ       0.193400
     17 H1          -0.3400     0.3010    -0.9840 h1         1 1AJ       0.046700
     18 H2           1.8700    -0.9130    -0.4750 hc         1 1AJ       0.039700
     19 H3           3.9240    -0.2480     4.4580 h4         1 1AJ       0.152000
     20 H4           1.5210     0.5210     4.6560 ha         1 1AJ       0.123000
     21 H5          -0.3260     1.6880     2.9540 h1         1 1AJ       0.047700
     22 H6          -1.7920     4.8400     0.4270 h4         1 1AJ       0.168000
     23 H7          -2.8140     5.7060     2.6850 h4         1 1AJ       0.008100
     24 H8          -1.9840     1.6130     3.2160 h5         1 1AJ       0.043100
     25 H9          -0.3400    -0.9770     0.3210 h1         1 1AJ       0.046700
     26 H10          1.8700     0.9130    -0.4750 hc         1 1AJ       0.039700
     27 H11         -0.8090    -0.0130     2.7860 h1         1 1AJ       0.047700
@<TRIPOS>BOND
     1     1     2 1   
     2     1     9 1   
     3     1    17 1   
     4     1    25 1   
     5     2     3 1   
     6     2    18 1   
     7     2    26 1   
     8     3     4 1   
     9     3     7 2   
    10     4     5 1   
    11     5     6 2   
    12     5    19 1   
    13     6     7 1   
    14     6    20 1   
    15     7     8 1   
    16     8     9 1   
    17     8    21 1   
    18     8    27 1   
    19     9    10 1   
    20    10    11 2   
    21    10    12 1   
    22    12    13 1   
    23    12    16 1   
    24    13    14 2   
    25    13    22 1   
    26    14    15 1   
    27    14    23 1   
    28    15    16 2   
    29    16    24 1   
@<TRIPOS>SUBSTRUCTURE
     1 1AJ         1 TEMP              0 ****  ****    0 ROOT
