@<TRIPOS>MOLECULE
1AJ
   27    29     1     0     0
SMALL
bcc


@<TRIPOS>ATOM
      1 CAH          0.0470    -0.0930     0.0030 c3         1 1AJ       0.094000
      2 CAG          1.5130    -0.5280     0.0770 c3         1 1AJ      -0.006100
      3 CAN          2.0990    -0.1060     1.3580 cc         1 1AJ      -0.125400
      4 SAK          3.6680     0.3490     1.6920 ss         1 1AJ       0.063200
      5 CAC          3.3590     0.6370     3.3090 cc         1 1AJ      -0.172100
      6 CAD          2.0420     0.3970     3.6370 cd         1 1AJ      -0.134000
      7 CAM          1.3060    -0.0400     2.4940 cd         1 1AJ      -0.143300
      8 CAI         -0.1270    -0.4320     2.4900 c3         1 1AJ       0.154300
      9 NAO         -0.7540    -0.4170     1.1790 n          1 1AJ      -0.444800
     10 CAL         -2.1130    -0.0730     1.0470 c          1 1AJ       0.667900
     11 OAA         -2.5540     0.4180    -0.0150 o          1 1AJ      -0.589100
     12 NAP         -3.0380    -0.3380     2.0940 n          1 1AJ      -0.223000
     13 CAE         -4.3170     0.2550     2.1620 cc         1 1AJ      -0.205600
     14 CAB         -4.9470    -0.3060     3.2770 cd         1 1AJ       0.289200
     15 NAJ         -4.1020    -1.2440     3.8890 nd         1 1AJ      -0.656000
     16 CAF         -2.9710    -1.2550     3.1680 cc         1 1AJ       0.408400
     17 H1          -0.4400    -0.6040    -0.8780 h1         1 1AJ       0.061700
     18 H2           2.0500    -0.0720    -0.7950 hc         1 1AJ       0.065200
     19 H3           4.1280     0.9770     4.0010 h4         1 1AJ       0.175000
     20 H4           1.6010     0.5190     4.6280 ha         1 1AJ       0.158000
     21 H5          -0.6860     0.2320     3.2120 h1         1 1AJ       0.059200
     22 H6          -4.6390     0.9900     1.4240 h4         1 1AJ       0.199000
     23 H7          -5.9410    -0.1010     3.6720 h4         1 1AJ       0.048100
     24 H8          -2.1070    -1.9010     3.3500 h5         1 1AJ       0.067100
     25 H9           0.0090     1.0200    -0.1830 h1         1 1AJ       0.061700
     26 H10          1.5860    -1.6460    -0.0220 hc         1 1AJ       0.065200
     27 H11         -0.1850    -1.4960     2.8740 h1         1 1AJ       0.059200
@<TRIPOS>BOND
     1     1     2 1   
     2     1     9 1   
     3     1    17 1   
     4     1    25 1   
     5     2     3 1   
     6     2    18 1   
     7     2    26 1   
     8     3     4 1   
     9     3     7 2   
    10     4     5 1   
    11     5     6 2   
    12     5    19 1   
    13     6     7 1   
    14     6    20 1   
    15     7     8 1   
    16     8     9 1   
    17     8    21 1   
    18     8    27 1   
    19     9    10 1   
    20    10    11 2   
    21    10    12 1   
    22    12    13 1   
    23    12    16 1   
    24    13    14 2   
    25    13    22 1   
    26    14    15 1   
    27    14    23 1   
    28    15    16 2   
    29    16    24 1   
@<TRIPOS>SUBSTRUCTURE
     1 1AJ         1 TEMP              0 ****  ****    0 ROOT
