@<TRIPOS>MOLECULE
1AK
   53    56     1     0     0
SMALL
bcc


@<TRIPOS>ATOM
      1 CL1        -0.6330    0.2340    0.3500 cl        1 1AK      0.014000
      2 C01         1.9150   -0.5630    0.2960 ca        1 1AK     -0.123000
      3 C02         3.1450   -0.8600    0.8760 ca        1 1AK     -0.100000
      4 C03         3.3240   -0.7170    2.2510 ca        1 1AK     -0.127000
      5 C04         2.2770   -0.2770    3.0560 ca        1 1AK     -0.084000
      6 C05         1.0240    0.0230    2.4860 ca        1 1AK      0.034000
      7 C06         0.8520   -0.1210    1.0890 ca        1 1AK     -0.047000
      8 N08        -0.0410    0.4610    3.3080 na        1 1AK     -0.096000
      9 C09        -0.4230    1.7810    3.6300 c2        1 1AK     -0.056000
     10 N10        -1.5420    1.7160    4.4300 n2        1 1AK     -0.054000
     11 N11        -1.8760    0.4690    4.6220 n2        1 1AK     -0.086000
     12 C12        -0.9930   -0.3540    3.9530 c2        1 1AK      0.023000
     13 C13        -1.0170   -1.7940    3.9100 c2        1 1AK     -0.403000
     14 C14        -1.8920   -2.5970    4.4850 c1        1 1AK      0.246000
     15 C15        -1.7800   -5.4710    4.3830 c2        1 1AK     -0.065000
     16 N16        -0.6790   -5.1580    3.6810 n2        1 1AK     -0.125000
     17 N17        -0.0830   -6.2700    3.2820 n2        1 1AK     -0.074000
     18 C18        -0.7950   -7.3310    3.7230 c2        1 1AK      0.008000
     19 C19        -0.6150   -8.7600    3.5850 ca        1 1AK     -0.009000
     20 C20         0.4840   -9.2550    2.8680 ca        1 1AK     -0.094500
     21 C21         0.6620  -10.6300    2.7330 ca        1 1AK     -0.099500
     22 C22        -0.2560  -11.5160    3.3130 ca        1 1AK      0.012000
     23 C23        -1.3550  -11.0210    4.0300 ca        1 1AK     -0.099500
     24 C24        -1.5330   -9.6480    4.1650 ca        1 1AK     -0.094500
     25 C25        -0.0730  -12.9200    3.1750 c1        1 1AK     -0.104000
     26 N26         0.0770  -14.0680    3.0620 n1        1 1AK     -0.020000
     27 O27        -1.9110   -6.8560    4.4470 os        1 1AK     -0.129000
     28 C28         0.2580    3.0070    3.2020 c2        1 1AK      0.121000
     29 C29        -0.4540    4.2270    3.2430 c2        1 1AK     -0.168000
     30 C30         0.2040    5.3910    2.8510 c2        1 1AK      0.018000
     31 C31         1.5390    5.3380    2.4320 c2        1 1AK     -0.886000
     32 C32         2.1530    4.0630    2.4130 c2        1 1AK      0.044000
     33 N33         1.5530    2.9260    2.7850 n2        1 1AK     -0.156000
     34 S34         2.3650    6.7040    1.9290 s6        1 1AK      2.870000
     35 O35         3.4360    6.3300    1.1060 o         1 1AK     -0.934500
     36 O36         1.4600    7.6540    1.4400 o         1 1AK     -0.934500
     37 C37         2.9730    7.2390    3.4150 c3        1 1AK     -0.940000
     38 H01         1.7750   -0.6730   -0.7910 ha        1 1AK      0.157000
     39 H02         3.9770   -1.2070    0.2430 ha        1 1AK      0.146000
     40 H03         4.2980   -0.9490    2.7080 ha        1 1AK      0.146000
     41 H04         2.4360   -0.1570    4.1400 ha        1 1AK      0.155000
     42 H13        -0.2080   -2.2950    3.3250 ha        1 1AK      0.225000
     43 H14        -2.5370   -4.8530    4.8790 h5        1 1AK      0.264000
     44 H20         1.2080   -8.5610    2.4110 ha        1 1AK      0.161500
     45 H21         1.5250  -11.0190    2.1700 ha        1 1AK      0.154000
     46 H23        -2.0760  -11.7180    4.4860 ha        1 1AK      0.154000
     47 H24        -2.3950   -9.2550    4.7280 ha        1 1AK      0.161500
     48 H29        -1.5020    4.2560    3.5750 ha        1 1AK      0.179000
     49 H30        -0.3310    6.3590    2.8540 ha        1 1AK      0.165000
     50 H32         3.2000    3.9580    2.0590 h4        1 1AK      0.187000
     51 H37         3.5460    8.1940    3.2940 h1        1 1AK      0.155000
     52 H37A        2.1760    7.4490    4.1690 h1        1 1AK      0.155000
     53 H37B        3.6770    6.5130    3.8890 h1        1 1AK      0.155000
@<TRIPOS>BOND
     1    1    7 1
     2    2    3 1
     3    2    7 1
     4    2   38 1
     5    3    4 1
     6    3   39 1
     7    4    5 1
     8    4   40 1
     9    5    6 1
    10    5   41 1
    11    6    7 1
    12    6    8 1
    13    8    9 1
    14    8   12 1
    15    9   10 1
    16    9   28 1
    17   10   11 1
    18   11   12 1
    19   12   13 1
    20   13   14 1
    21   13   42 1
    22   15   16 1
    23   15   27 1
    24   15   43 1
    25   16   17 1
    26   17   18 1
    27   18   19 1
    28   18   27 1
    29   19   20 1
    30   19   24 1
    31   20   21 1
    32   20   44 1
    33   21   22 1
    34   21   45 1
    35   22   23 1
    36   22   25 1
    37   23   24 1
    38   23   46 1
    39   24   47 1
    40   25   26 1
    41   28   29 1
    42   28   33 1
    43   29   30 1
    44   29   48 1
    45   30   31 1
    46   30   49 1
    47   31   32 1
    48   31   34 1
    49   32   33 1
    50   32   50 1
    51   34   35 1
    52   34   36 1
    53   34   37 1
    54   37   51 1
    55   37   52 1
    56   37   53 1
@<TRIPOS>SUBSTRUCTURE
     1 1AK         1 TEMP              0 ****  ****    0 ROOT
