@<TRIPOS>MOLECULE
molecule
   23    22     1     0     0
SMALL
bcc


@<TRIPOS>ATOM
      1 C1           0.0000     0.0000     0.0000 c          1 1AL       0.446600
      2 O2           1.2360     0.0000     0.0000 o          1 1AL      -0.339600
      3 N3          -0.7230     0.0000     1.1090 nz         1 1AL      -0.721900
      4 N4          -0.5810     0.0370    -1.2460 ny         1 1AL      -0.494300
      5 C5          -2.9310     0.4130    -1.1770 c          1 1AL       1.062600
      6 O6          -3.8800     0.3210    -1.9940 o          1 1AL      -0.498300
      7 O7          -3.1450     0.0490     0.0040 o          1 1AL      -0.498300
      8 C8          -1.5070     0.9880    -1.5410 c3         1 1AL      -0.274300
      9 C9          -2.0340     1.3440    -4.1350 c          1 1AL       0.446600
     10 O10         -1.5510     1.9740    -5.0900 o          1 1AL      -0.339600
     11 N11         -3.1370     0.5720    -4.2640 nz         1 1AL      -0.721900
     12 N12         -1.2670     1.5000    -2.9740 ny         1 1AL      -0.494300
     13 HN31        -1.3730    -0.7600     1.0840 hn         1 1AL       0.522633
     14 HN32        -1.2220     0.8640     1.1820 hn         1 1AL       0.522633
     15 HN4         -1.0210    -0.8510    -1.3880 hn         1 1AL       0.513300
     16 H8          -1.3280     1.8240    -0.8760 hx         1 1AL       0.236700
     17 H111        -3.3290     0.4250    -5.2350 hn         1 1AL       0.522633
     18 H112        -2.9810    -0.3100    -3.8170 hn         1 1AL       0.522633
     19 H12         -0.3720     1.1260    -3.2200 hn         1 1AL       0.513300
     20 H33         -0.1190    -0.1020     1.9010 hn         1 1AL       0.522633
     21 H113        -3.9160     1.0290    -3.8340 hn         1 1AL       0.522633
     22 H42          0.1620     0.1380    -1.9090 hn         1 1AL       0.513300
     23 H122        -1.1980     2.4930    -2.8690 hn         1 1AL       0.513300
@<TRIPOS>BOND
     1     1     2 2   
     2     1     3 1   
     3     1     4 1   
     4     3    13 1   
     5     3    14 1   
     6     4     8 1   
     7     4    15 1   
     8     5     6 1   
     9     5     7 1   
    10     5     8 1   
    11     8    12 1   
    12     8    16 1   
    13     9    10 2   
    14     9    11 1   
    15     9    12 1   
    16    11    17 1   
    17    11    18 1   
    18    12    19 1   
    19    20     3 1   
    20    21    11 1   
    21    22     4 1   
    22    23    12 1   
@<TRIPOS>SUBSTRUCTURE
     1 1AL         1 TEMP              0 ****  ****    0 ROOT
