@<TRIPOS>MOLECULE
1AL
   21    20     1     0     0
SMALL
bcc


@<TRIPOS>ATOM
      1 C1           0.0000     0.0000     0.0000 c          1 1AL       0.272100
      2 O2           1.2160     0.0000     0.0000 o          1 1AL      -0.525100
      3 N3          -0.6740     0.0000     1.1670 nz         1 1AL       0.219100
      4 N4          -0.6740    -0.0020    -1.1670 ns         1 1AL      -0.091400
      5 C5          -0.5620     1.0010    -3.3740 c          1 1AL       0.923600
      6 O6          -1.6700     0.7370    -3.9470 o          1 1AL      -0.789300
      7 O7           0.0220     2.1130    -3.5950 o          1 1AL      -0.789300
      8 C8           0.0580    -0.0030    -2.4370 c3         1 1AL      -0.069900
      9 C9           1.0720    -2.1450    -3.0020 c          1 1AL       0.272100
     10 O10          2.0990    -1.7660    -2.4720 o          1 1AL      -0.525100
     11 N11          1.0120    -3.3730    -3.5540 nz         1 1AL       0.219100
     12 N12         -0.0070    -1.3380    -3.0360 ns         1 1AL      -0.091400
     13 HN31        -1.2470     0.8180     1.2210 hn         1 1AL       0.242300
     14 HN32        -0.0230    -0.0020     1.9280 hn         1 1AL       0.242300
     15 HN4         -1.6750     0.0100    -1.1660 hn         1 1AL       0.198500
     16 H8           1.0930     0.2630    -2.2570 h2         1 1AL       0.124700
     17 H111         1.8530    -3.8740    -3.3440 hn         1 1AL       0.242300
     18 H112         0.2270    -3.8680    -3.1800 hn         1 1AL       0.242300
     19 H12         -0.8460    -1.6440    -3.4870 hn         1 1AL       0.198500
     20 H33         -1.2600    -0.8100     1.2140 hn         1 1AL       0.242300
     21 H113         0.9220    -3.2880    -4.5470 hn         1 1AL       0.242300
@<TRIPOS>BOND
     1     1     2 2   
     2     1     3 1   
     3     1     4 1   
     4     3    13 1   
     5     3    14 1   
     6     3    20 1   
     7     4     8 1   
     8     4    15 1   
     9     5     6 1   
    10     5     7 1   
    11     5     8 1   
    12     8    12 1   
    13     8    16 1   
    14     9    10 2   
    15     9    11 1   
    16     9    12 1   
    17    11    17 1   
    18    11    18 1   
    19    11    21 1   
    20    12    19 1   
@<TRIPOS>SUBSTRUCTURE
     1 1AL         1 TEMP              0 ****  ****    0 ROOT
