@<TRIPOS>MOLECULE
molecule
   54    58     1     0     0
SMALL
bcc


@<TRIPOS>ATOM
      1 C01          0.0000     0.0000     0.0000 ca         1 1AM       0.400200
      2 N02          1.3200     0.0000     0.0000 nb         1 1AM      -0.676000
      3 C03          2.0190     0.0000     1.1200 ca         1 1AM       0.408200
      4 C04          1.3830     0.0000     2.3500 ca         1 1AM      -0.042700
      5 C05         -0.0160    -0.0000     2.3910 ca         1 1AM       0.080600
      6 C06         -0.7100     0.0050     1.1840 ca         1 1AM      -0.272300
      7 N07         -0.6970    -0.0000     3.6070 nh         1 1AM      -0.623000
      8 C08         -1.5520    -1.1880     3.7330 c3         1 1AM       0.171300
      9 C09         -2.2190    -1.1920     5.1110 c3         1 1AM       0.155300
     10 N10         -3.0040     0.0390     5.2730 n7         1 1AM      -0.824200
     11 C11         -2.1490     1.2280     5.1490 c3         1 1AM       0.155300
     12 C12         -1.4830     1.2310     3.7710 c3         1 1AM       0.171300
     13 N13          2.1300     0.0000     3.5360 ns         1 1AM      -0.436100
     14 C14          3.3860     0.4890     3.5420 c          1 1AM       0.597600
     15 O15          3.8370     1.0210     2.5460 o          1 1AM      -0.605100
     16 C16          4.2140     0.3770     4.7540 cc         1 1AM       0.332800
     17 N17          3.7690    -0.1970     5.8770 nd         1 1AM      -0.683000
     18 C18          4.6080    -0.2220     6.8640 cc         1 1AM       0.607300
     19 S19          6.1150     0.5420     6.3720 ss         1 1AM      -0.195300
     20 C20          5.4780     0.8430     4.8150 cd         1 1AM      -0.155400
     21 N21          4.3580    -0.7680     8.1150 n          1 1AM      -0.442300
     22 C22          3.2110    -1.3590     8.4960 c          1 1AM       0.717100
     23 C23          3.3120    -1.8170     9.8940 ca         1 1AM      -0.123600
     24 C24          4.5820    -1.4840    10.3730 ca         1 1AM      -0.134300
     25 C25          5.3020    -0.8020     9.2380 c3         1 1AM       0.150300
     26 C26          2.4120    -2.4740    10.7340 ca         1 1AM      -0.083000
     27 C27          2.7850    -2.7880    12.0300 ca         1 1AM       0.138100
     28 C28          4.0500    -2.4510    12.4950 ca         1 1AM      -0.194000
     29 C29          4.9440    -1.8010    11.6630 ca         1 1AM      -0.072000
     30 O30          2.2320    -1.4950     7.7890 o          1 1AM      -0.562500
     31 O31          1.9100    -3.4280    12.8510 os         1 1AM      -0.321900
     32 C32          2.3590    -3.7210    14.1750 c3         1 1AM       0.127700
     33 H1          -0.5340     0.0020    -0.9430 h4         1 1AM       0.021100
     34 H2           3.1020     0.0000     1.0760 h4         1 1AM       0.064100
     35 H3          -1.7930     0.0050     1.1740 ha         1 1AM       0.142000
     36 H4          -0.9480    -2.0800     3.6230 h1         1 1AM       0.046700
     37 H5          -2.3150    -1.1660     2.9640 h1         1 1AM       0.046700
     38 H6          -2.8740    -2.0500     5.1920 h1         1 1AM       0.042950
     39 H7          -1.4570    -1.2370     5.8790 h1         1 1AM       0.042950
     40 H8          -3.4450     0.0380     6.1720 hn         1 1AM       0.354800
     41 H10         -1.3860     1.2050     5.9180 h1         1 1AM       0.042950
     42 H11         -2.7530     2.1200     5.2590 h1         1 1AM       0.042950
     43 H12         -2.2450     1.2770     3.0030 h1         1 1AM       0.046700
     44 H13         -0.8280     2.0900     3.6900 h1         1 1AM       0.046700
     45 H14          1.7440    -0.3950     4.3700 hn         1 1AM       0.365500
     46 H15          6.0050     1.3360     4.0060 h4         1 1AM       0.208000
     47 H16          5.5740     0.2070     9.5240 h1         1 1AM       0.068700
     48 H17          6.1840    -1.3680     8.9640 h1         1 1AM       0.068700
     49 H18          1.4250    -2.7380    10.3740 ha         1 1AM       0.165000
     50 H19          4.3370    -2.6990    13.5090 ha         1 1AM       0.145000
     51 H20          5.9300    -1.5390    12.0280 ha         1 1AM       0.137000
     52 H21          2.6130    -2.7990    14.6830 h1         1 1AM       0.044700
     53 H22          1.5710    -4.2280    14.7190 h1         1 1AM       0.044700
     54 H23          3.2330    -4.3600    14.1280 h1         1 1AM       0.044700
@<TRIPOS>BOND
     1    32    31 1   
     2    31    27 1   
     3    30    22 2   
     4    26    27 ar  
     5    26    23 ar  
     6    27    28 ar  
     7    22    23 1   
     8    22    21 1   
     9    23    24 ar  
    10    19    18 1   
    11    19    20 1   
    12    28    29 ar  
    13    21    18 1   
    14    21    25 1   
    15    24    29 ar  
    16    24    25 1   
    17    18    17 2   
    18    20    16 2   
    19    17    16 1   
    20    16    14 1   
    21    14    15 2   
    22    14    13 1   
    23    13     4 1   
    24     4     3 ar  
    25     4     5 ar  
    26     3     2 ar  
    27     9     8 1   
    28     9    10 1   
    29     7     5 1   
    30     7     8 1   
    31     7    12 1   
    32     5     6 ar  
    33     2     1 ar  
    34    11    12 1   
    35    11    10 1   
    36     6     1 ar  
    37     1    33 1   
    38     3    34 1   
    39     6    35 1   
    40     8    36 1   
    41     8    37 1   
    42     9    38 1   
    43     9    39 1   
    44    10    40 1   
    45    11    41 1   
    46    11    42 1   
    47    12    43 1   
    48    12    44 1   
    49    13    45 1   
    50    20    46 1   
    51    25    47 1   
    52    25    48 1   
    53    26    49 1   
    54    28    50 1   
    55    29    51 1   
    56    32    52 1   
    57    32    53 1   
    58    32    54 1   
@<TRIPOS>SUBSTRUCTURE
     1 1AM         1 TEMP              0 ****  ****    0 ROOT
