@<TRIPOS>MOLECULE
1AM
   54    58     1     0     0
SMALL
bcc


@<TRIPOS>ATOM
      1 C01          0.0000     0.0000     0.0000 ca         1 1AM       0.390200
      2 N02          1.3200     0.0000     0.0000 nb         1 1AM      -0.566000
      3 C03          2.0190     0.0000     1.1200 ca         1 1AM       0.384200
      4 C04          1.3830     0.0000     2.3500 ca         1 1AM      -0.187700
      5 C05         -0.0160    -0.0000     2.3910 ca         1 1AM       0.003600
      6 C06         -0.7100     0.0050     1.1840 ca         1 1AM      -0.238300
      7 N07         -0.6970    -0.0000     3.6070 nh         1 1AM      -0.405000
      8 C08         -1.5520    -1.1880     3.7330 c3         1 1AM       0.149300
      9 C09         -2.2190    -1.1920     5.1110 c3         1 1AM       0.143800
     10 N10         -3.0040     0.0390     5.2730 n7         1 1AM      -0.587200
     11 C11         -2.1490     1.2280     5.1490 c3         1 1AM       0.143800
     12 C12         -1.4830     1.2310     3.7710 c3         1 1AM       0.149300
     13 N13          2.1300     0.0000     3.5360 ns         1 1AM       0.018900
     14 C14          3.3860     0.4890     3.5420 c          1 1AM       0.489600
     15 O15          3.8370     1.0210     2.5460 o          1 1AM      -0.647100
     16 C16          4.2140     0.3770     4.7540 cc         1 1AM       0.279800
     17 N17          3.7690    -0.1970     5.8770 nc         1 1AM      -0.566000
     18 C18          4.6080    -0.2220     6.8640 cd         1 1AM       0.451300
     19 S19          6.1150     0.5420     6.3720 ss         1 1AM      -0.298300
     20 C20          5.4780     0.8430     4.8150 cd         1 1AM      -0.069400
     21 N21          4.3580    -0.7680     8.1150 n          1 1AM      -0.041300
     22 C22          3.2110    -1.3590     8.4960 c          1 1AM       0.632100
     23 C23          3.3120    -1.8170     9.8940 ca         1 1AM      -0.136600
     24 C24          4.5820    -1.4840    10.3730 ca         1 1AM      -0.145300
     25 C25          5.3020    -0.8020     9.2380 c3         1 1AM       0.100300
     26 C26          2.4120    -2.4740    10.7340 ca         1 1AM      -0.053000
     27 C27          2.7850    -2.7880    12.0300 ca         1 1AM       0.144100
     28 C28          4.0500    -2.4510    12.4950 ca         1 1AM      -0.184000
     29 C29          4.9440    -1.8010    11.6630 ca         1 1AM      -0.032000
     30 O30          2.2320    -1.4950     7.7890 o          1 1AM      -0.606500
     31 O31          1.9100    -3.4280    12.8510 os         1 1AM      -0.302900
     32 C32          2.3590    -3.7210    14.1750 c3         1 1AM       0.244700
     33 H1          -0.5340     0.0020    -0.9430 h4         1 1AM      -0.020900
     34 H2           3.1020     0.0000     1.0760 h4         1 1AM       0.031100
     35 H3          -1.7930     0.0050     1.1740 ha         1 1AM       0.122000
     36 H4          -0.9480    -2.0800     3.6230 h1         1 1AM       0.019450
     37 H5          -2.3150    -1.1660     2.9640 h1         1 1AM       0.019450
     38 H6          -2.8740    -2.0500     5.1920 h1         1 1AM       0.014200
     39 H7          -1.4570    -1.2370     5.8790 h1         1 1AM       0.014200
     40 H8          -3.4450     0.0380     6.1720 hn         1 1AM       0.254800
     41 H10         -1.3860     1.2050     5.9180 h1         1 1AM       0.014200
     42 H11         -2.7530     2.1200     5.2590 h1         1 1AM       0.014200
     43 H12         -2.2450     1.2770     3.0030 h1         1 1AM       0.019450
     44 H13         -0.8280     2.0900     3.6900 h1         1 1AM       0.019450
     45 H14          1.7440    -0.3950     4.3700 hn         1 1AM       0.205500
     46 H15          6.0050     1.3360     4.0060 h4         1 1AM       0.183000
     47 H16          5.5740     0.2070     9.5240 h1         1 1AM       0.035700
     48 H17          6.1840    -1.3680     8.9640 h1         1 1AM       0.035700
     49 H18          1.4250    -2.7380    10.3740 ha         1 1AM       0.131000
     50 H19          4.3370    -2.6990    13.5090 ha         1 1AM       0.125000
     51 H20          5.9300    -1.5390    12.0280 ha         1 1AM       0.105000
     52 H21          2.6130    -2.7990    14.6830 h1         1 1AM      -0.000633
     53 H22          1.5710    -4.2280    14.7190 h1         1 1AM      -0.000633
     54 H23          3.2330    -4.3600    14.1280 h1         1 1AM      -0.000633
@<TRIPOS>BOND
     1     1     2 ar  
     2     1     6 ar  
     3     1    33 1   
     4     2     3 ar  
     5     3     4 ar  
     6     3    34 1   
     7     4     5 ar  
     8     4    13 1   
     9     5     6 ar  
    10     5     7 1   
    11     6    35 1   
    12     7     8 1   
    13     7    12 1   
    14     8     9 1   
    15     8    36 1   
    16     8    37 1   
    17     9    10 1   
    18     9    38 1   
    19     9    39 1   
    20    10    11 1   
    21    10    40 1   
    22    11    12 1   
    23    11    41 1   
    24    11    42 1   
    25    12    43 1   
    26    12    44 1   
    27    13    14 1   
    28    13    45 1   
    29    14    15 2   
    30    14    16 1   
    31    16    17 1   
    32    16    20 2   
    33    17    18 2   
    34    18    19 1   
    35    18    21 1   
    36    19    20 1   
    37    20    46 1   
    38    21    22 1   
    39    21    25 1   
    40    22    23 1   
    41    22    30 2   
    42    23    24 ar  
    43    23    26 ar  
    44    24    25 1   
    45    24    29 ar  
    46    25    47 1   
    47    25    48 1   
    48    26    27 ar  
    49    26    49 1   
    50    27    28 ar  
    51    27    31 1   
    52    28    29 ar  
    53    28    50 1   
    54    29    51 1   
    55    31    32 1   
    56    32    52 1   
    57    32    53 1   
    58    32    54 1   
@<TRIPOS>SUBSTRUCTURE
     1 1AM         1 TEMP              0 ****  ****    0 ROOT
