@<TRIPOS>MOLECULE
1AM
   54    58     1     0     0
SMALL
bcc


@<TRIPOS>ATOM
      1 C01          0.4260     0.0510    -0.2320 ca         1 1AM       0.376200
      2 N02          1.7280    -0.1850     0.0120 nb         1 1AM      -0.651000
      3 C03          2.1170    -0.2820     1.2900 ca         1 1AM       0.384200
      4 C04          1.2400    -0.1530     2.4080 ca         1 1AM      -0.042700
      5 C05         -0.1420     0.1160     2.1310 ca         1 1AM       0.093600
      6 C06         -0.5290     0.2120     0.7800 ca         1 1AM      -0.259300
      7 N07         -1.0710     0.2240     3.2080 nh         1 1AM      -0.642000
      8 C08         -2.4000    -0.3030     2.9300 c3         1 1AM       0.177300
      9 C09         -3.2960    -0.2800     4.1860 c3         1 1AM       0.161300
     10 N10         -3.3390     1.0240     4.8180 n7         1 1AM      -0.821200
     11 C11         -2.0260     1.5920     5.0550 c3         1 1AM       0.161300
     12 C12         -1.1180     1.5530     3.8090 c3         1 1AM       0.177300
     13 N13          1.6920    -0.3150     3.7240 ns         1 1AM      -0.446100
     14 C14          2.9930    -0.1140     4.1560 c          1 1AM       0.600600
     15 O15          3.9180     0.2270     3.3920 o          1 1AM      -0.597100
     16 C16          3.2810    -0.3210     5.6060 cc         1 1AM       0.298800
     17 N17          2.3390    -0.7610     6.5250 nc         1 1AM      -0.688000
     18 C18          2.9230    -0.8520     7.7430 cd         1 1AM       0.520300
     19 S19          4.6090    -0.3960     7.7490 ss         1 1AM       0.023700
     20 C20          4.5510    -0.0820     6.1250 cd         1 1AM      -0.240400
     21 N21          2.2570    -1.2700     8.8830 n          1 1AM      -0.456300
     22 C22          2.8000    -1.3620    10.1890 c          1 1AM       0.725100
     23 C23          1.7020    -1.8610    11.0670 ca         1 1AM      -0.122600
     24 C24          0.5410    -2.0560    10.2800 ca         1 1AM      -0.116300
     25 C25          0.8480    -1.6860     8.8510 c3         1 1AM       0.149300
     26 C26          1.7200    -2.1200    12.4250 ca         1 1AM      -0.124000
     27 C27          0.5230    -2.5910    13.0010 ca         1 1AM       0.117100
     28 C28         -0.6370    -2.7890    12.2290 ca         1 1AM      -0.129000
     29 C29         -0.6280    -2.5200    10.8580 ca         1 1AM      -0.085000
     30 O30          3.9630    -1.0740    10.4900 o          1 1AM      -0.591500
     31 O31          0.3810    -2.8930    14.3400 os         1 1AM      -0.322900
     32 C32          1.5360    -2.7110    15.1530 c3         1 1AM       0.109700
     33 H1           0.1380     0.1210    -1.2950 h4         1 1AM       0.022100
     34 H2           3.2000    -0.4670     1.4430 h4         1 1AM       0.058100
     35 H3          -1.5740     0.4150     0.5060 ha         1 1AM       0.144000
     36 H4          -2.2900    -1.3700     2.5910 h1         1 1AM       0.046700
     37 H5          -2.9240     0.2740     2.1140 h1         1 1AM       0.046700
     38 H6          -4.3440    -0.5370     3.8660 h1         1 1AM       0.035700
     39 H7          -2.9420    -1.0870     4.8920 h1         1 1AM       0.035700
     40 H8          -3.8530     0.9750     5.6770 hn         1 1AM       0.364800
     41 H10         -1.4860     1.0780     5.9030 h1         1 1AM       0.035700
     42 H11         -2.1700     2.6710     5.3420 h1         1 1AM       0.035700
     43 H12         -0.0760     1.8370     4.1240 h1         1 1AM       0.046700
     44 H13         -1.4820     2.3250     3.0710 h1         1 1AM       0.046700
     45 H14          0.9960    -0.5390     4.4030 hn         1 1AM       0.351500
     46 H15          5.3910     0.2650     5.5180 h4         1 1AM       0.208000
     47 H16          0.7200    -2.5610     8.1570 h1         1 1AM       0.082200
     48 H17          0.2030    -0.8370     8.4940 h1         1 1AM       0.082200
     49 H18          2.6320    -1.9620    13.0160 ha         1 1AM       0.163000
     50 H19         -1.5480    -3.1600    12.7210 ha         1 1AM       0.158000
     51 H20         -1.5370    -2.6780    10.2590 ha         1 1AM       0.147000
     52 H21          2.3690    -3.3710    14.8100 h1         1 1AM       0.050033
     53 H22          1.1830    -3.0160    16.1720 h1         1 1AM       0.050033
     54 H23          1.8550    -1.6410    15.1510 h1         1 1AM       0.050033
@<TRIPOS>BOND
     1     1     2 ar  
     2     1     6 ar  
     3     1    33 1   
     4     2     3 ar  
     5     3     4 ar  
     6     3    34 1   
     7     4     5 ar  
     8     4    13 1   
     9     5     6 ar  
    10     5     7 1   
    11     6    35 1   
    12     7     8 1   
    13     7    12 1   
    14     8     9 1   
    15     8    36 1   
    16     8    37 1   
    17     9    10 1   
    18     9    38 1   
    19     9    39 1   
    20    10    11 1   
    21    10    40 1   
    22    11    12 1   
    23    11    41 1   
    24    11    42 1   
    25    12    43 1   
    26    12    44 1   
    27    13    14 1   
    28    13    45 1   
    29    14    15 2   
    30    14    16 1   
    31    16    17 1   
    32    16    20 2   
    33    17    18 2   
    34    18    19 1   
    35    18    21 1   
    36    19    20 1   
    37    20    46 1   
    38    21    22 1   
    39    21    25 1   
    40    22    23 1   
    41    22    30 2   
    42    23    24 ar  
    43    23    26 ar  
    44    24    25 1   
    45    24    29 ar  
    46    25    47 1   
    47    25    48 1   
    48    26    27 ar  
    49    26    49 1   
    50    27    28 ar  
    51    27    31 1   
    52    28    29 ar  
    53    28    50 1   
    54    29    51 1   
    55    31    32 1   
    56    32    52 1   
    57    32    53 1   
    58    32    54 1   
@<TRIPOS>SUBSTRUCTURE
     1 1AM         1 TEMP              0 ****  ****    0 ROOT
