@<TRIPOS>MOLECULE
1AN
   14    14     1     0     0
SMALL
bcc


@<TRIPOS>ATOM
      1 C4           0.0260    -0.0860     0.0300 ca         1 1AN      -0.151000
      2 C5           1.4190    -0.1450    -0.0110 ca         1 1AN      -0.104000
      3 C3          -0.6260     0.0670     1.2480 ca         1 1AN      -0.125000
      4 C6           2.1690    -0.0490     1.1550 ca         1 1AN      -0.172000
      5 C2           0.1150     0.1630     2.4360 ca         1 1AN       0.054900
      6 C1           1.5420     0.1180     2.4100 ca         1 1AN       0.113600
      7 N            2.2940     0.3190     3.5700 nv         1 1AN      -0.813200
      8 F2          -0.5390     0.2970     3.6190 f          1 1AN      -0.148900
      9 HC4         -0.5580    -0.1600    -0.8980 ha         1 1AN       0.137000
     10 HC5          1.9330    -0.2690    -0.9760 ha         1 1AN       0.134000
     11 HC3         -1.7240     0.1120     1.2990 ha         1 1AN       0.146000
     12 HC6          3.2670    -0.0940     1.0980 ha         1 1AN       0.137000
     13 HN1          3.1940    -0.1070     3.5540 hn         1 1AN       0.395800
     14 HN2          1.7910     0.1580     4.4160 hn         1 1AN       0.395800
@<TRIPOS>BOND
     1     1     2 ar  
     2     1     3 ar  
     3     1     9 1   
     4     2     4 ar  
     5     2    10 1   
     6     3     5 ar  
     7     3    11 1   
     8     4     6 ar  
     9     4    12 1   
    10     5     6 ar  
    11     5     8 1   
    12     6     7 1   
    13     7    13 1   
    14     7    14 1   
@<TRIPOS>SUBSTRUCTURE
     1 1AN         1 TEMP              0 ****  ****    0 ROOT
