@<TRIPOS>MOLECULE
1AN
   14    14     1     0     0
SMALL
bcc


@<TRIPOS>ATOM
      1 C4           0.0000     0.0000     0.0000 ca         1 1AN      -0.079000
      2 C5           1.3820     0.0000     0.0000 ca         1 1AN      -0.110000
      3 C3          -0.6950     0.0000     1.1960 ca         1 1AN      -0.130000
      4 C6           2.0750     0.0000     1.1950 ca         1 1AN      -0.091000
      5 C2          -0.0070    -0.0060     2.3950 ca         1 1AN       0.093900
      6 C1           1.3820    -0.0010     2.3960 ca         1 1AN       0.002600
      7 N            2.0810    -0.0020     3.6080 nv         1 1AN      -0.550200
      8 F2          -0.6860    -0.0060     3.5630 f          1 1AN      -0.126900
      9 HC4         -0.5400     0.0020    -0.9390 ha         1 1AN       0.105000
     10 HC5          1.9230     0.0000    -0.9390 ha         1 1AN       0.105000
     11 HC3         -1.7780    -0.0020     1.1920 ha         1 1AN       0.117000
     12 HC6          3.1580     0.0020     1.1940 ha         1 1AN       0.111000
     13 HN1          2.3400    -0.8690     4.0350 hn         1 1AN       0.275800
     14 HN2          2.3390     0.8640     4.0370 hn         1 1AN       0.275800
@<TRIPOS>BOND
     1     1     2 ar  
     2     1     3 ar  
     3     1     9 1   
     4     2     4 ar  
     5     2    10 1   
     6     3     5 ar  
     7     3    11 1   
     8     4     6 ar  
     9     4    12 1   
    10     5     6 ar  
    11     5     8 1   
    12     6     7 1   
    13     7    13 1   
    14     7    14 1   
@<TRIPOS>SUBSTRUCTURE
     1 1AN         1 TEMP              0 ****  ****    0 ROOT
