@<TRIPOS>MOLECULE
molecule
   49    53     1     0     0
SMALL
bcc


@<TRIPOS>ATOM
      1 C01          0.0000     0.0000     0.0000 ca         1 1AO      -0.144000
      2 C02          1.3820     0.0000     0.0000 ca         1 1AO      -0.113000
      3 C03          2.0780     0.0000     1.1950 ca         1 1AO      -0.141000
      4 C04          1.3900     0.0010     2.3980 ca         1 1AO       0.081600
      5 C05         -0.0050     0.0010     2.3980 ca         1 1AO       0.045600
      6 C06         -0.6950     0.0010     1.1960 ca         1 1AO      -0.144000
      7 N07         -0.7070     0.0020     3.6090 nh         1 1AO      -0.624000
      8 C08         -1.5650    -1.1850     3.7220 c3         1 1AO       0.170300
      9 C09         -2.2520    -1.1880     5.0890 c3         1 1AO       0.155300
     10 N10         -3.0390     0.0430     5.2410 n7         1 1AO      -0.823200
     11 C11         -2.1810     1.2310     5.1290 c3         1 1AO       0.155300
     12 C12         -1.4940     1.2330     3.7600 c3         1 1AO       0.170300
     13 N13          2.0930     0.0010     3.6100 ns         1 1AO      -0.438100
     14 C14          3.3470     0.4900     3.6610 c          1 1AO       0.595600
     15 O15          3.8330     1.0230     2.6810 o          1 1AO      -0.605100
     16 C16          4.1310     0.3790     4.9030 cc         1 1AO       0.330800
     17 N17          3.6470    -0.1970     6.0070 nc         1 1AO      -0.681000
     18 C18          4.4500    -0.2220     7.0240 cd         1 1AO       0.589900
     19 S19          5.9730     0.5430     6.5880 ss         1 1AO      -0.164300
     20 C20          5.3920     0.8460     5.0090 cd         1 1AO      -0.162400
     21 N21          4.1520    -0.7700     8.2680 na         1 1AO       0.058100
     22 N22          2.9450    -1.3850     8.6160 nd         1 1AO      -0.457100
     23 C23          2.9910    -1.7890     9.8530 cc         1 1AO       0.385800
     24 C24          4.3010    -1.4370    10.3920 ca         1 1AO      -0.238900
     25 C25          4.9180    -1.6100    11.6360 ca         1 1AO      -0.054000
     26 C26          6.1910    -1.1560    11.8300 ca         1 1AO      -0.159000
     27 C27          6.8800    -0.5220    10.8050 ca         1 1AO      -0.078000
     28 C28          6.2930    -0.3390     9.5720 ca         1 1AO      -0.150000
     29 C29          5.0000    -0.7990     9.3480 ca         1 1AO      -0.023200
     30 H1          -0.5400     0.0000    -0.9390 ha         1 1AO       0.128000
     31 H2           1.9220    -0.0010    -0.9390 ha         1 1AO       0.132000
     32 H3           3.1620     0.0000     1.1910 ha         1 1AO       0.173000
     33 H4          -1.7790     0.0010     1.1930 ha         1 1AO       0.136000
     34 H5          -0.9590    -2.0780     3.6220 h1         1 1AO       0.045950
     35 H6          -2.3160    -1.1620     2.9420 h1         1 1AO       0.045950
     36 H7          -2.9090    -2.0460     5.1610 h1         1 1AO       0.039950
     37 H8          -1.5020    -1.2340     5.8690 h1         1 1AO       0.039950
     38 H9          -3.4920     0.0420     6.1340 hn         1 1AO       0.353800
     39 H11         -1.4290     1.2080     5.9090 h1         1 1AO       0.039950
     40 H12         -2.7860     2.1240     5.2300 h1         1 1AO       0.039950
     41 H13         -0.8380     2.0920     3.6880 h1         1 1AO       0.045950
     42 H14         -2.2450     1.2790     2.9810 h1         1 1AO       0.045950
     43 H15          1.6810    -0.4060     4.4260 hn         1 1AO       0.360500
     44 H16          5.9470     1.3390     4.2200 h4         1 1AO       0.208000
     45 H17          2.1980    -2.2980    10.3880 h4         1 1AO       0.070800
     46 H18          4.3890    -2.1040    12.4410 ha         1 1AO       0.137000
     47 H19          6.6670    -1.2910    12.7930 ha         1 1AO       0.138000
     48 H20          7.8890    -0.1680    10.9760 ha         1 1AO       0.139000
     49 H21          6.8390     0.1570     8.7790 ha         1 1AO       0.137000
@<TRIPOS>BOND
     1    23    22 2   
     2    23    24 1   
     3    22    21 1   
     4    19    18 1   
     5    19    20 1   
     6    24    25 ar  
     7    24    29 ar  
     8    21    18 1   
     9    21    29 1   
    10    25    26 ar  
    11    18    17 2   
    12    29    28 ar  
    13    20    16 2   
    14    26    27 ar  
    15    17    16 1   
    16    28    27 ar  
    17    16    14 1   
    18    14    15 2   
    19    14    13 1   
    20    13     4 1   
    21     4     3 ar  
    22     4     5 ar  
    23     3     2 ar  
    24     5     7 1   
    25     5     6 ar  
    26     7     8 1   
    27     7    12 1   
    28     2     1 ar  
    29     9     8 1   
    30     9    10 1   
    31     1     6 ar  
    32    11    12 1   
    33    11    10 1   
    34     1    30 1   
    35     2    31 1   
    36     3    32 1   
    37     6    33 1   
    38     8    34 1   
    39     8    35 1   
    40     9    36 1   
    41     9    37 1   
    42    10    38 1   
    43    11    39 1   
    44    11    40 1   
    45    12    41 1   
    46    12    42 1   
    47    13    43 1   
    48    20    44 1   
    49    23    45 1   
    50    25    46 1   
    51    26    47 1   
    52    27    48 1   
    53    28    49 1   
@<TRIPOS>SUBSTRUCTURE
     1 1AO         1 TEMP              0 ****  ****    0 ROOT
