@<TRIPOS>MOLECULE
1AO
   49    53     1     0     0
SMALL
bcc


@<TRIPOS>ATOM
      1 C01          0.1610     0.4870    -0.0660 ca         1 1AO      -0.152000
      2 C02          1.5180     0.2000     0.0430 ca         1 1AO      -0.106000
      3 C03          2.0970    -0.0230     1.2870 ca         1 1AO      -0.157000
      4 C04          1.3290     0.0410     2.4690 ca         1 1AO       0.092600
      5 C05         -0.0700     0.3410     2.3570 ca         1 1AO       0.034600
      6 C06         -0.6210     0.5530     1.0820 ca         1 1AO      -0.129000
      7 N07         -0.8710     0.4150     3.5480 nh         1 1AO      -0.633000
      8 C08         -1.9010    -0.6160     3.6010 c3         1 1AO       0.172800
      9 C09         -2.7440    -0.5340     4.8910 c3         1 1AO       0.160300
     10 N10         -3.2660     0.7940     5.1370 n7         1 1AO      -0.821200
     11 C11         -2.2550     1.8300     5.0650 c3         1 1AO       0.160300
     12 C12         -1.4060     1.7530     3.7800 c3         1 1AO       0.172800
     13 N13          1.8850    -0.2130     3.7340 ns         1 1AO      -0.443100
     14 C14          3.2280    -0.1800     4.0630 c          1 1AO       0.601600
     15 O15          4.1410     0.0400     3.2420 o          1 1AO      -0.600100
     16 C16          3.5890    -0.4410     5.4910 cc         1 1AO       0.299800
     17 N17          2.6580    -0.7260     6.4790 nc         1 1AO      -0.666000
     18 C18          3.3070    -0.9160     7.6460 cd         1 1AO       0.511900
     19 S19          5.0390    -0.7420     7.5360 ss         1 1AO       0.017700
     20 C20          4.9160    -0.4130     5.9170 cd         1 1AO      -0.229400
     21 N21          2.6880    -1.2520     8.8570 na         1 1AO       0.057100
     22 N22          3.3850    -1.2430    10.0300 nc         1 1AO      -0.515100
     23 C23          2.5210    -1.4440    11.0330 cd         1 1AO       0.386800
     24 C24          1.1580    -1.5670    10.5230 ca         1 1AO      -0.221900
     25 C25         -0.0940    -1.7810    11.0870 ca         1 1AO      -0.063000
     26 C26         -1.1960    -1.8440    10.2420 ca         1 1AO      -0.154000
     27 C27         -1.0550    -1.7000     8.8520 ca         1 1AO      -0.103000
     28 C28          0.1810    -1.4890     8.2510 ca         1 1AO      -0.117000
     29 C29          1.2980    -1.4190     9.0920 ca         1 1AO      -0.013200
     30 H1          -0.2940     0.6610    -1.0510 ha         1 1AO       0.133000
     31 H2           2.1450     0.1470    -0.8600 ha         1 1AO       0.135000
     32 H3           3.1760    -0.2480     1.3390 ha         1 1AO       0.172000
     33 H4          -1.6960     0.7810     0.9880 ha         1 1AO       0.135000
     34 H5          -2.5950    -0.5630     2.7120 h1         1 1AO       0.044200
     35 H6          -1.3860    -1.6160     3.5800 h1         1 1AO       0.044200
     36 H7          -3.6210    -1.2300     4.7740 h1         1 1AO       0.034200
     37 H8          -2.1150    -0.9130     5.7510 h1         1 1AO       0.034200
     38 H9          -3.7250     0.8240     6.0290 hn         1 1AO       0.363800
     39 H11         -1.5570     1.8070     5.9530 h1         1 1AO       0.034200
     40 H12         -2.7850     2.8230     5.0690 h1         1 1AO       0.034200
     41 H13         -0.5350     2.4560     3.8920 h1         1 1AO       0.044200
     42 H14         -2.0330     2.1090     2.9110 h1         1 1AO       0.044200
     43 H15          1.2290    -0.3140     4.4810 hn         1 1AO       0.353500
     44 H16          5.7550    -0.2000     5.2500 h4         1 1AO       0.210000
     45 H17          2.8420    -1.5040    12.0750 h4         1 1AO       0.061800
     46 H18         -0.2050    -1.8970    12.1750 ha         1 1AO       0.141000
     47 H19         -2.1980    -2.0110    10.6640 ha         1 1AO       0.137000
     48 H20         -1.9520    -1.7570     8.2150 ha         1 1AO       0.135000
     49 H21          0.2640    -1.3810     7.1600 ha         1 1AO       0.167000
@<TRIPOS>BOND
     1     1     2 ar  
     2     1     6 ar  
     3     1    30 1   
     4     2     3 ar  
     5     2    31 1   
     6     3     4 ar  
     7     3    32 1   
     8     4     5 ar  
     9     4    13 1   
    10     5     6 ar  
    11     5     7 1   
    12     6    33 1   
    13     7     8 1   
    14     7    12 1   
    15     8     9 1   
    16     8    34 1   
    17     8    35 1   
    18     9    10 1   
    19     9    36 1   
    20     9    37 1   
    21    10    11 1   
    22    10    38 1   
    23    11    12 1   
    24    11    39 1   
    25    11    40 1   
    26    12    41 1   
    27    12    42 1   
    28    13    14 1   
    29    13    43 1   
    30    14    15 2   
    31    14    16 1   
    32    16    17 1   
    33    16    20 2   
    34    17    18 2   
    35    18    19 1   
    36    18    21 1   
    37    19    20 1   
    38    20    44 1   
    39    21    22 1   
    40    21    29 1   
    41    22    23 2   
    42    23    24 1   
    43    23    45 1   
    44    24    25 ar  
    45    24    29 ar  
    46    25    26 ar  
    47    25    46 1   
    48    26    27 ar  
    49    26    47 1   
    50    27    28 ar  
    51    27    48 1   
    52    28    29 ar  
    53    28    49 1   
@<TRIPOS>SUBSTRUCTURE
     1 1AO         1 TEMP              0 ****  ****    0 ROOT
