@<TRIPOS>MOLECULE
1AO
   49    53     1     0     0
SMALL
bcc


@<TRIPOS>ATOM
      1 C01          0.0000     0.0000     0.0000 ca         1 1AO      -0.112000
      2 C02          1.3820     0.0000     0.0000 ca         1 1AO      -0.080000
      3 C03          2.0780     0.0000     1.1950 ca         1 1AO      -0.121000
      4 C04          1.3900     0.0010     2.3980 ca         1 1AO      -0.069400
      5 C05         -0.0050     0.0010     2.3980 ca         1 1AO      -0.026400
      6 C06         -0.6950     0.0010     1.1960 ca         1 1AO      -0.116000
      7 N07         -0.7070     0.0020     3.6090 nh         1 1AO      -0.408000
      8 C08         -1.5650    -1.1850     3.7220 c3         1 1AO       0.148300
      9 C09         -2.2520    -1.1880     5.0890 c3         1 1AO       0.144300
     10 N10         -3.0390     0.0430     5.2410 n7         1 1AO      -0.585200
     11 C11         -2.1810     1.2310     5.1290 c3         1 1AO       0.144300
     12 C12         -1.4940     1.2330     3.7600 c3         1 1AO       0.148300
     13 N13          2.0930     0.0010     3.6100 ns         1 1AO       0.015900
     14 C14          3.3470     0.4900     3.6610 c          1 1AO       0.487600
     15 O15          3.8330     1.0230     2.6810 o          1 1AO      -0.649100
     16 C16          4.1310     0.3790     4.9030 cc         1 1AO       0.274800
     17 N17          3.6470    -0.1970     6.0070 nc         1 1AO      -0.558000
     18 C18          4.4500    -0.2220     7.0240 cd         1 1AO       0.408900
     19 S19          5.9730     0.5430     6.5880 ss         1 1AO      -0.271300
     20 C20          5.3920     0.8460     5.0090 cd         1 1AO      -0.070400
     21 N21          4.1520    -0.7700     8.2680 na         1 1AO       0.518100
     22 N22          2.9450    -1.3850     8.6160 nc         1 1AO      -0.607100
     23 C23          2.9910    -1.7890     9.8530 cd         1 1AO       0.450800
     24 C24          4.3010    -1.4370    10.3920 ca         1 1AO      -0.252900
     25 C25          4.9180    -1.6100    11.6360 ca         1 1AO      -0.016000
     26 C26          6.1910    -1.1560    11.8300 ca         1 1AO      -0.132000
     27 C27          6.8800    -0.5220    10.8050 ca         1 1AO      -0.051000
     28 C28          6.2930    -0.3390     9.5720 ca         1 1AO      -0.119000
     29 C29          5.0000    -0.7990     9.3480 ca         1 1AO      -0.196200
     30 H1          -0.5400     0.0000    -0.9390 ha         1 1AO       0.102000
     31 H2           1.9220    -0.0010    -0.9390 ha         1 1AO       0.103000
     32 H3           3.1620     0.0000     1.1910 ha         1 1AO       0.156000
     33 H4          -1.7790     0.0010     1.1930 ha         1 1AO       0.113000
     34 H5          -0.9590    -2.0780     3.6220 h1         1 1AO       0.019450
     35 H6          -2.3160    -1.1620     2.9420 h1         1 1AO       0.019450
     36 H7          -2.9090    -2.0460     5.1610 h1         1 1AO       0.011950
     37 H8          -1.5020    -1.2340     5.8690 h1         1 1AO       0.011950
     38 H9          -3.4920     0.0420     6.1340 hn         1 1AO       0.252800
     39 H11         -1.4290     1.2080     5.9090 h1         1 1AO       0.011950
     40 H12         -2.7860     2.1240     5.2300 h1         1 1AO       0.011950
     41 H13         -0.8380     2.0920     3.6880 h1         1 1AO       0.019450
     42 H14         -2.2450     1.2790     2.9810 h1         1 1AO       0.019450
     43 H15          1.6810    -0.4060     4.4260 hn         1 1AO       0.199500
     44 H16          5.9470     1.3390     4.2200 h4         1 1AO       0.183000
     45 H17          2.1980    -2.2980    10.3880 h4         1 1AO       0.017800
     46 H18          4.3890    -2.1040    12.4410 ha         1 1AO       0.104000
     47 H19          6.6670    -1.2910    12.7930 ha         1 1AO       0.109000
     48 H20          7.8890    -0.1680    10.9760 ha         1 1AO       0.106000
     49 H21          6.8390     0.1570     8.7790 ha         1 1AO       0.126000
@<TRIPOS>BOND
     1     1     2 ar  
     2     1     6 ar  
     3     1    30 1   
     4     2     3 ar  
     5     2    31 1   
     6     3     4 ar  
     7     3    32 1   
     8     4     5 ar  
     9     4    13 1   
    10     5     6 ar  
    11     5     7 1   
    12     6    33 1   
    13     7     8 1   
    14     7    12 1   
    15     8     9 1   
    16     8    34 1   
    17     8    35 1   
    18     9    10 1   
    19     9    36 1   
    20     9    37 1   
    21    10    11 1   
    22    10    38 1   
    23    11    12 1   
    24    11    39 1   
    25    11    40 1   
    26    12    41 1   
    27    12    42 1   
    28    13    14 1   
    29    13    43 1   
    30    14    15 2   
    31    14    16 1   
    32    16    17 1   
    33    16    20 2   
    34    17    18 2   
    35    18    19 1   
    36    18    21 1   
    37    19    20 1   
    38    20    44 1   
    39    21    22 1   
    40    21    29 1   
    41    22    23 2   
    42    23    24 1   
    43    23    45 1   
    44    24    25 ar  
    45    24    29 ar  
    46    25    26 ar  
    47    25    46 1   
    48    26    27 ar  
    49    26    47 1   
    50    27    28 ar  
    51    27    48 1   
    52    28    29 ar  
    53    28    49 1   
@<TRIPOS>SUBSTRUCTURE
     1 1AO         1 TEMP              0 ****  ****    0 ROOT
