@<TRIPOS>MOLECULE
molecule
   74    75     1     0     0
SMALL
bcc


@<TRIPOS>ATOM
      1 C5N          0.0000     0.0000     0.0000 c3         1 1AT      -0.080400
      2 C4N          1.5300     0.0000     0.0000 c3         1 1AT      -0.083400
      3 C3N          2.0400     0.0000     1.4420 c3         1 1AT      -0.072400
      4 C2N          3.5700    -0.0010     1.4420 c3         1 1AT      -0.130400
      5 C1N          4.0720     0.0000     2.8630 c          1 1AT       0.635100
      6 O1N          3.2940     0.1220     3.7790 o          1 1AT      -0.561000
      7 O6           5.3850    -0.1350     3.1110 os         1 1AT      -0.413900
      8 C6           5.7850    -0.2420     4.5030 c3         1 1AT       0.160400
      9 C5           7.3100    -0.3370     4.5880 c3         1 1AT       0.141100
     10 C4           7.7210    -0.6500     6.0290 c3         1 1AT       0.111100
     11 C3           9.2500    -0.6830     6.1190 c3         1 1AT       0.106100
     12 C2           9.8080     0.6580     5.6350 c3         1 1AT       0.119100
     13 C1           9.3160     0.9220     4.2090 c3         1 1AT       0.316900
     14 O5           7.8870     0.9090     4.1900 os         1 1AT      -0.396600
     15 O1           9.8140    -0.0950     3.3380 os         1 1AT      -0.392600
     16 C2'          9.7450     0.2430     1.9520 c3         1 1AT       0.340600
     17 C3'         10.1150    -0.9830     1.0940 c3         1 1AT       0.110100
     18 C4'          8.8680    -1.2170     0.2080 c3         1 1AT       0.083100
     19 C5'          8.1740     0.1690     0.2510 c3         1 1AT       0.108100
     20 O2'          8.4010     0.6190     1.6060 os         1 1AT      -0.363600
     21 C6'          6.6760     0.0300    -0.0310 c3         1 1AT       0.147400
     22 O6'          6.0650     1.3220     0.0000 oh         1 1AT      -0.587800
     23 O4'          9.2470    -1.5550    -1.1280 oh         1 1AT      -0.603800
     24 O3'         10.3580    -2.1200     1.9250 oh         1 1AT      -0.569800
     25 C1'         10.7020     1.3970     1.6490 c3         1 1AT       0.105400
     26 O1'         10.2450     2.5800     2.3070 oh         1 1AT      -0.595800
     27 O2          11.2370     0.6130     5.6470 oh         1 1AT      -0.591800
     28 O3           9.6440    -0.9030     7.4750 oh         1 1AT      -0.614800
     29 O4           7.1920    -1.9210     6.4110 oh         1 1AT      -0.602800
     30 H1          -0.3610    -0.8840     0.5110 hc         1 1AT       0.044200
     31 H2          -0.3610     0.8840     0.5110 hc         1 1AT       0.044200
     32 H4           1.8910     0.8850    -0.5110 hc         1 1AT       0.038700
     33 H5           1.8910    -0.8850    -0.5110 hc         1 1AT       0.038700
     34 H6           1.6780    -0.8840     1.9530 hc         1 1AT       0.057200
     35 H7           1.6790     0.8850     1.9530 hc         1 1AT       0.057200
     36 H8           3.9320     0.8830     0.9310 hc         1 1AT       0.075200
     37 H9           3.9310    -0.8860     0.9330 hc         1 1AT       0.075200
     38 H10          5.3430    -1.1290     4.9380 h1         1 1AT       0.062200
     39 H11          5.4470     0.6340     5.0440 h1         1 1AT       0.062200
     40 H12          7.6650    -1.1230     3.9340 h1         1 1AT       0.079700
     41 H13          7.3380     0.1190     6.6890 h1         1 1AT       0.050700
     42 H14          9.6320    -1.4800     5.4930 h1         1 1AT       0.080700
     43 H15          9.4610     1.4500     6.2880 h1         1 1AT       0.060700
     44 H16          9.6700     1.8920     3.8800 h2         1 1AT       0.129700
     45 H17         10.9790    -0.7650     0.4780 h1         1 1AT       0.060700
     46 H18          8.2290    -1.9780     0.6390 h1         1 1AT       0.075700
     47 H19          8.6380     0.8460    -0.4550 h1         1 1AT       0.059700
     48 H20          6.2230    -0.6020     0.7240 h1         1 1AT       0.056200
     49 H21          6.5320    -0.4140    -1.0080 h1         1 1AT       0.056200
     50 H22          6.0690     1.6930    -0.8670 ho         1 1AT       0.395000
     51 H23          9.1570    -2.4850    -1.2550 ho         1 1AT       0.410000
     52 H24         11.0730    -2.6220     1.5700 ho         1 1AT       0.402000
     53 H25         11.6940     1.1470     2.0040 h1         1 1AT       0.036700
     54 H26         10.7340     1.5690     0.5790 h1         1 1AT       0.036700
     55 H27         10.7290     3.3240     1.9890 ho         1 1AT       0.403000
     56 H28         11.5630     1.1690     6.3350 ho         1 1AT       0.405000
     57 H29         10.1730    -1.6810     7.5270 ho         1 1AT       0.413000
     58 H30          6.9490    -1.9000     7.3210 ho         1 1AT       0.412000
     59 C7          -0.5110     0.0000    -1.4430 c3         1 1AT      -0.082400
     60 C8          -2.0400     0.0000    -1.4420 c3         1 1AT      -0.082400
     61 C9          -2.5510     0.0000    -2.8850 c3         1 1AT      -0.082400
     62 C10         -4.0810     0.0010    -2.8850 c3         1 1AT      -0.084400
     63 C11         -4.5910    -0.0000    -4.3280 c3         1 1AT      -0.092100
     64 H3          -0.1500     0.8850    -1.9540 hc         1 1AT       0.040200
     65 H31         -0.1500    -0.8850    -1.9540 hc         1 1AT       0.040200
     66 H32         -2.4010     0.8840    -0.9320 hc         1 1AT       0.042200
     67 H33         -2.4010    -0.8840    -0.9320 hc         1 1AT       0.042200
     68 H34         -2.1890     0.8840    -3.3960 hc         1 1AT       0.040200
     69 H35         -2.1900    -0.8850    -3.3960 hc         1 1AT       0.040200
     70 H36         -4.4410     0.8860    -2.3750 hc         1 1AT       0.040200
     71 H37         -4.4420    -0.8830    -2.3740 hc         1 1AT       0.040200
     72 H38         -5.6740     0.0000    -4.3280 hc         1 1AT       0.032367
     73 H39         -4.2290     0.8840    -4.8390 hc         1 1AT       0.032367
     74 H40         -4.2300    -0.8850    -4.8380 hc         1 1AT       0.032367
@<TRIPOS>BOND
     1     1     2 1
     2     2     3 1
     3     3     4 1
     4     4     5 1
     5     5     6 2
     6     5     7 1
     7     7     8 1
     8    29    10 1
     9    27    12 1
    10     8     9 1
    11     9    10 1
    12     9    14 1
    13    11    10 1
    14    11    28 1
    15    11    12 1
    16    12    13 1
    17    14    13 1
    18    13    15 1
    19    21    22 1
    20    21    19 1
    21    15    16 1
    22    20    19 1
    23    20    16 1
    24    19    18 1
    25    16    25 1
    26    16    17 1
    27    25    26 1
    28    18    17 1
    29    18    23 1
    30    17    24 1
    31     1    30 1
    32     1    31 1
    33     2    32 1
    34     2    33 1
    35     3    34 1
    36     3    35 1
    37     4    36 1
    38     4    37 1
    39     8    38 1
    40     8    39 1
    41     9    40 1
    42    10    41 1
    43    11    42 1
    44    12    43 1
    45    13    44 1
    46    17    45 1
    47    18    46 1
    48    19    47 1
    49    21    48 1
    50    21    49 1
    51    22    50 1
    52    23    51 1
    53    24    52 1
    54    25    53 1
    55    25    54 1
    56    26    55 1
    57    27    56 1
    58    28    57 1
    59    29    58 1
    60     1    59 1
    61    59    60 1
    62    60    61 1
    63    61    62 1
    64    62    63 1
    65    59    64 1
    66    59    65 1
    67    60    66 1
    68    60    67 1
    69    61    68 1
    70    61    69 1
    71    62    70 1
    72    62    71 1
    73    63    72 1
    74    63    73 1
    75    63    74 1
@<TRIPOS>SUBSTRUCTURE
     1 1AT         1 TEMP              0 ****  ****    0 ROOT
