@<TRIPOS>MOLECULE
1AT
   74    62     1     0     0
SMALL
bcc


@<TRIPOS>ATOM
      1 C5N        -1.2380    0.1550   -0.9300 c1        1 1AT     -0.168000
      2 C4N        -0.4220    0.5120   -0.1300 c1        1 1AT     -0.145000
      3 C3N         0.5410    0.9380    0.8390 c3        1 1AT     -0.051000
      4 C2N         1.9600    0.8420    0.3030 c3        1 1AT     -0.165000
      5 C1N         2.9580    1.1980    1.3630 c2        1 1AT      0.314000
      6 O1N         2.7760    1.2620    2.5850 o         1 1AT     -0.385000
      7 O6          4.1950    1.4600    0.8990 oh        1 1AT     -0.436000
      8 C6          6.1460    2.1620    2.5630 c1        1 1AT     -0.086000
      9 C5          7.1600    1.1840    2.8790 c3        1 1AT     -0.112000
     10 C4          7.5180   -0.1520    5.7720 c1        1 1AT     -0.012000
     11 C3          8.5530   -0.9430    6.5250 c3        1 1AT     -0.102000
     12 C2          9.7990   -0.0670    6.7600 c3        1 1AT     -0.057000
     13 C1         10.8030   -0.0960    5.6330 c1        1 1AT      0.000000
     14 O5          8.3480    1.7380    3.4210 oh        1 1AT     -0.374000
     15 O1         10.2410   -0.0760    4.4450 os        1 1AT     -0.199000
     16 C2'        11.1710   -0.0300    3.3280 c3        1 1AT      0.022000
     17 C3'         9.7380   -1.5810    0.7180 c1        1 1AT      0.035000
     18 C4'         8.4110   -2.0740    0.1690 c3        1 1AT      0.058000
     19 C5'         7.6140   -0.9740   -0.2920 c1        1 1AT     -0.284000
     20 O2'        11.2670    1.3370    3.0600 oh        1 1AT     -0.365000
     21 C6'         6.9510   -0.0480   -0.6550 c1        1 1AT      0.022000
     22 O6'         6.3050    0.9990   -1.1280 oh        1 1AT     -0.158000
     23 O4'         8.6880   -3.0400   -0.8470 oh        1 1AT     -0.366000
     24 O3'        10.8350   -1.9200    0.1400 oh        1 1AT     -0.148000
     25 C1'        12.5210   -0.6170    3.7250 c1        1 1AT      0.089000
     26 O1'        13.5690    0.1230    3.6780 oh        1 1AT     -0.153000
     27 O2         10.4120   -0.4720    7.9720 oh        1 1AT     -0.323000
     28 O3          7.9680   -1.4400    7.7180 oh        1 1AT     -0.366000
     29 O4          6.3060   -0.1000    6.1960 oh        1 1AT     -0.143000
     30 H1          0.8240   -2.4750    0.7490 ha        1 1AT      0.002250
     31 H2         -2.2320   -1.4280   -1.8880 hc        1 1AT      0.121500
     32 H4          2.1220   -2.2600   -1.1840 ha        1 1AT      0.002250
     33 H5          2.7230   -2.0790   -1.4390 ha        1 1AT      0.002250
     34 H6          0.4540    0.3050    1.7690 hc        1 1AT      0.119000
     35 H7          0.3270    2.0010    1.1460 hc        1 1AT      0.119000
     36 H8          2.0970    1.5260   -0.5750 hc        1 1AT      0.117000
     37 H9          2.1750   -0.2060   -0.0420 hc        1 1AT      0.117000
     38 H10         4.8470    1.7210    1.6650 ho        1 1AT      0.319000
     39 H11         6.2690    3.1880    2.9300 ha        1 1AT      0.089000
     40 H12         7.4430    0.6080    1.9470 h1        1 1AT      0.160500
     41 H13         6.6780    0.4520    3.6080 h1        1 1AT      0.160500
     42 H14         8.8340   -1.8320    5.8850 h1        1 1AT      0.127000
     43 H15         9.4850    1.0070    6.9280 h1        1 1AT      0.135000
     44 H16         8.5140    1.2910    4.2670 ho        1 1AT      0.235000
     45 H17        10.6650   -0.6270    2.5080 h2        1 1AT      0.190000
     46 H18         7.8740   -2.6070    1.0140 h1        1 1AT      0.134000
     47 H19        10.4080    1.6560    2.7380 ho        1 1AT      0.254000
     48 H20         6.9480    2.8040    0.5320 ha        1 1AT      0.002250
     49 H21         6.2980    2.9570    0.3980 ha        1 1AT      0.002250
     50 H22         5.4250    1.0190   -0.6860 ho        1 1AT      0.272000
     51 H23         7.9580   -3.0470   -1.4750 ho        1 1AT      0.231000
     52 H24        10.7630   -2.4820   -0.6650 ho        1 1AT      0.208000
     53 H25        12.9380    2.9760    2.6290 ha        1 1AT      0.002250
     54 H26        12.8120    3.1150    3.2810 ha        1 1AT      0.002250
     55 H27        13.4460    1.0700    3.4380 ho        1 1AT      0.205000
     56 H28        11.2290   -0.9410    7.7530 ho        1 1AT      0.233000
     57 H29         8.6220   -1.4060    8.4310 ho        1 1AT      0.246000
     58 H30         6.1100   -0.5770    7.0360 ho        1 1AT      0.210000
     59 C7         -2.1980   -0.2940   -1.8990 c3        1 1AT      0.060000
     60 C8         -3.5190    0.2190   -1.6710 c1        1 1AT     -0.119000
     61 C9         -4.6280    0.6380   -1.4950 c1        1 1AT     -0.046000
     62 C10        -5.8840    1.1080   -1.3020 c1        1 1AT     -0.057000
     63 C11        -6.9950    1.5240   -1.1290 c1        1 1AT     -0.170000
     64 H3          0.6370   -1.8280    0.6670 ha        1 1AT      0.002250
     65 H31        -0.0110   -2.9130   -1.4270 ha        1 1AT      0.002250
     66 H32        -0.4790   -3.0480   -1.8990 ha        1 1AT      0.002250
     67 H33        -1.8550    0.0140   -2.9330 hc        1 1AT      0.121500
     68 H34        -1.0870   -2.0800   -4.4960 ha        1 1AT      0.002250
     69 H35        -1.1910   -2.1330   -3.8280 ha        1 1AT      0.002250
     70 H36        -2.6940   -3.5750   -2.8810 ha        1 1AT      0.002250
     71 H37        -2.6580   -3.6770   -2.2110 ha        1 1AT      0.002250
     72 H38        -3.2290   -3.9310   -5.3800 ha        1 1AT      0.002250
     73 H39        -7.9760    1.8930   -0.9760 ha        1 1AT      0.230000
     74 H40        -2.7540   -3.5230   -5.1200 ha        1 1AT      0.002250
@<TRIPOS>BOND
     1    1    2 1   
     2    1   59 1   
     3    2    3 1   
     4    3    4 1   
     5    3   34 1   
     6    3   35 1   
     7    4    5 1   
     8    4   36 1   
     9    4   37 1   
    10    5    6 1   
    11    5    7 1   
    12    7   38 1   
    13    8    9 1   
    14    8   39 1   
    15    9   14 1   
    16    9   40 1   
    17    9   41 1   
    18   10   11 1   
    19   10   29 1   
    20   11   12 1   
    21   11   28 1   
    22   11   42 1   
    23   12   13 1   
    24   12   27 1   
    25   12   43 1   
    26   13   15 1   
    27   14   44 1   
    28   15   16 1   
    29   16   20 1   
    30   16   25 1   
    31   16   45 1   
    32   17   18 1   
    33   17   24 1   
    34   18   19 1   
    35   18   23 1   
    36   18   46 1   
    37   19   21 1   
    38   20   47 1   
    39   21   22 1   
    40   22   50 1   
    41   23   51 1   
    42   24   52 1   
    43   25   26 1   
    44   26   55 1   
    45   27   56 1   
    46   28   57 1   
    47   29   58 1   
    48   30   64 1   
    49   31   59 1   
    50   32   33 1   
    51   48   49 1   
    52   53   54 1   
    53   59   60 1   
    54   59   67 1   
    55   60   61 1   
    56   61   62 1   
    57   62   63 1   
    58   63   73 1   
    59   65   66 1   
    60   68   69 1   
    61   70   71 1   
    62   72   74 1   
@<TRIPOS>SUBSTRUCTURE
     1 1AT         1 TEMP              0 ****  ****    0 ROOT
