@<TRIPOS>MOLECULE
molecule
   55    58     1     0     0
SMALL
bcc


@<TRIPOS>ATOM
      1 CBB          0.0000     0.0000     0.0000 ca         1 1AU      -0.053000
      2 CAO          1.4030     0.0000     0.0000 ca         1 1AU      -0.123000
      3 CAG          2.0770     0.0000     1.1840 ca         1 1AU      -0.123000
      4 CAF          1.3930     0.0010     2.3980 ca         1 1AU      -0.126000
      5 CAM          0.0330     0.0020     2.4350 ca         1 1AU      -0.112000
      6 CBA         -0.6960     0.0020     1.2330 ca         1 1AU      -0.018000
      7 CAN         -2.1020     0.0030     1.2340 ca         1 1AU      -0.139000
      8 CAI         -2.7830     0.0020     0.0550 ca         1 1AU      -0.103000
      9 CAL         -2.1100     0.0010    -1.1630 ca         1 1AU      -0.140000
     10 CAX         -0.7320     0.0060    -1.2070 ca         1 1AU       0.071600
     11 NAS         -0.0660     0.0040    -2.4340 ns         1 1AU      -0.477100
     12 CAU         -0.6780     0.4900    -3.5330 c          1 1AU       0.789100
     13 OAE         -1.7670     1.0220    -3.4380 o          1 1AU      -0.622100
     14 NAT         -0.0820     0.3860    -4.7370 ns         1 1AU      -0.470100
     15 CAZ         -0.7140     0.8880    -5.8740 cc         1 1AU       0.081300
     16 CAQ         -1.9250     1.5090    -5.9140 cd         1 1AU      -0.342300
     17 CAY         -2.1860     1.8540    -7.2430 cd         1 1AU       0.366600
     18 CBD         -3.4200     2.5610    -7.7430 c3         1 1AU      -0.083300
     19 CAB         -3.5050     2.4230    -9.2640 c3         1 1AU      -0.080433
     20 CAC         -4.6610     1.9340    -7.1030 c3         1 1AU      -0.080433
     21 CAA         -3.3460     4.0430    -7.3680 c3         1 1AU      -0.080433
     22 NAR         -1.1790     1.4600    -7.9800 nc         1 1AU      -0.504800
     23 NBC         -0.2310     0.8520    -7.1460 na         1 1AU       0.116300
     24 CAW          0.9930     0.3030    -7.5500 ca         1 1AU       0.089800
     25 CAP          1.0990    -0.3240    -8.7830 ca         1 1AU      -0.207000
     26 CAK          2.1020     0.3910    -6.7190 ca         1 1AU      -0.237000
     27 CAH          3.3090    -0.1500    -7.1160 ca         1 1AU      -0.061000
     28 CAJ          3.4180    -0.7800    -8.3410 ca         1 1AU      -0.222000
     29 CAV          2.3130    -0.8670    -9.1790 ca         1 1AU       0.224600
     30 NAD          2.4250    -1.4990   -10.4200 nv         1 1AU      -0.915200
     31 HAO          1.9480    -0.0010    -0.9360 ha         1 1AU       0.120000
     32 HAG          3.1600    -0.0000     1.1820 ha         1 1AU       0.128000
     33 HAF          1.9520     0.0010     3.3260 ha         1 1AU       0.129000
     34 HAM         -0.4860     0.0030     3.3860 ha         1 1AU       0.135000
     35 HAN         -2.6430     0.0040     2.1730 ha         1 1AU       0.133000
     36 HAI         -3.8660    -0.0020     0.0660 ha         1 1AU       0.134000
     37 HAL         -2.6750     0.0010    -2.0870 ha         1 1AU       0.175000
     38 HNAS         0.8440    -0.4050    -2.5080 hn         1 1AU       0.321500
     39 HNAT         0.7950    -0.0890    -4.8220 hn         1 1AU       0.329500
     40 HAQ         -2.5970     1.6500    -5.0760 ha         1 1AU       0.202000
     41 HAB         -4.4160     2.8890    -9.6190 hc         1 1AU       0.039589
     42 HABA        -3.5100     1.3730    -9.5320 hc         1 1AU       0.039589
     43 HABB        -2.6500     2.9080    -9.7190 hc         1 1AU       0.039589
     44 HAC         -4.7070     2.2110    -6.0570 hc         1 1AU       0.039589
     45 HACA        -4.6050     0.8560    -7.1890 hc         1 1AU       0.039589
     46 HACB        -5.5480     2.2920    -7.6110 hc         1 1AU       0.039589
     47 HAA         -4.1930     4.5660    -7.7970 hc         1 1AU       0.039589
     48 HAAA        -2.4270     4.4670    -7.7530 hc         1 1AU       0.039589
     49 HAAB        -3.3670     4.1440    -6.2900 hc         1 1AU       0.039589
     50 HAP          0.2370    -0.3910    -9.4350 ha         1 1AU       0.156000
     51 HAK          2.0200     0.8840    -5.7580 ha         1 1AU       0.132000
     52 HAH          4.1720    -0.0820    -6.4650 ha         1 1AU       0.132000
     53 HAJ          4.3660    -1.2040    -8.6490 ha         1 1AU       0.132000
     54 HNAD         1.6290    -1.5640   -11.0220 hn         1 1AU       0.433800
     55 HNAA         3.3010    -1.8910   -10.7040 hn         1 1AU       0.433800
@<TRIPOS>BOND
     1    10     1 ar
     2     6     1 ar
     3     1     2 ar
     4     2     3 ar
     5     2    31 1
     6     4     3 ar
     7     3    32 1
     8     5     4 ar
     9     4    33 1
    10     6     5 ar
    11     5    34 1
    12     7     6 ar
    13     8     7 ar
    14     7    35 1
    15     8     9 ar
    16     8    36 1
    17     9    10 ar
    18     9    37 1
    19    10    11 1
    20    12    11 1
    21    11    38 1
    22    13    12 2
    23    12    14 1
    24    15    14 1
    25    14    39 1
    26    16    15 2
    27    15    23 1
    28    16    17 1
    29    16    40 1
    30    18    17 1
    31    17    22 2
    32    20    18 1
    33    19    18 1
    34    18    21 1
    35    19    41 1
    36    19    42 1
    37    19    43 1
    38    20    44 1
    39    20    45 1
    40    20    46 1
    41    21    47 1
    42    21    48 1
    43    21    49 1
    44    22    23 1
    45    23    24 1
    46    24    26 ar
    47    24    25 ar
    48    25    29 ar
    49    25    50 1
    50    26    27 ar
    51    26    51 1
    52    27    28 ar
    53    27    52 1
    54    29    28 ar
    55    28    53 1
    56    29    30 1
    57    30    54 1
    58    30    55 1
@<TRIPOS>SUBSTRUCTURE
     1 1AU         1 TEMP              0 ****  ****    0 ROOT
