@<TRIPOS>MOLECULE
1AU
   55    58     1     0     0
SMALL
bcc


@<TRIPOS>ATOM
      1 CBB         -0.0250     0.3070     0.2310 ca         1 1AU      -0.052000
      2 CAO          1.3760     0.0580     0.2510 ca         1 1AU      -0.128000
      3 CAG          2.1070     0.2060     1.4050 ca         1 1AU      -0.124000
      4 CAF          1.4810     0.6140     2.6050 ca         1 1AU      -0.128000
      5 CAM          0.1350     0.8790     2.6150 ca         1 1AU      -0.114000
      6 CBA         -0.6450     0.7400     1.4330 ca         1 1AU      -0.023000
      7 CAN         -2.0320     1.0440     1.4520 ca         1 1AU      -0.135000
      8 CAI         -2.7820     0.9200     0.3110 ca         1 1AU      -0.107000
      9 CAL         -2.1980     0.4680    -0.8900 ca         1 1AU      -0.128000
     10 CAX         -0.8450     0.1490    -0.9480 ca         1 1AU       0.059600
     11 NAS         -0.2820    -0.3900    -2.1250 ns         1 1AU      -0.464100
     12 CAU         -0.5870     0.1200    -3.4040 c          1 1AU       0.763100
     13 OAE         -1.5470     0.8930    -3.6000 o          1 1AU      -0.591100
     14 NAT          0.2710    -0.2710    -4.4710 ns         1 1AU      -0.430100
     15 CAZ         -0.1760    -0.1400    -5.7900 cc         1 1AU       0.018300
     16 CAQ         -0.9910     0.8510    -6.3690 cd         1 1AU      -0.270300
     17 CAY         -1.1130     0.4730    -7.7630 cd         1 1AU       0.331600
     18 CBD         -1.8950     1.2140    -8.8040 c3         1 1AU      -0.074300
     19 CAB         -2.9810     0.3060    -9.3720 c3         1 1AU      -0.086433
     20 CAC         -2.5480     2.4440    -8.1860 c3         1 1AU      -0.086433
     21 CAA         -0.9640     1.6550    -9.9280 c3         1 1AU      -0.086433
     22 NAR         -0.4120    -0.6680    -8.0080 nc         1 1AU      -0.498800
     23 NBC          0.1190    -1.0720    -6.8380 na         1 1AU       0.120300
     24 CAW          1.0940    -2.1100    -6.7480 ca         1 1AU       0.053800
     25 CAP          0.7810    -3.3860    -7.2420 ca         1 1AU      -0.177000
     26 CAK          2.3550    -1.8610    -6.1690 ca         1 1AU      -0.205000
     27 CAH          3.2710    -2.9040    -6.0660 ca         1 1AU      -0.083000
     28 CAJ          2.9750    -4.1760    -6.5360 ca         1 1AU      -0.195000
     29 CAV          1.7200    -4.4380    -7.1340 ca         1 1AU       0.155600
     30 NAD          1.3790    -5.7300    -7.5380 nv         1 1AU      -0.822200
     31 HAO          1.9060    -0.2410    -0.6640 ha         1 1AU       0.119000
     32 HAG          3.1900     0.0130     1.4060 ha         1 1AU       0.133000
     33 HAF          2.0840     0.7200     3.5180 ha         1 1AU       0.135000
     34 HAM         -0.3690     1.2060     3.5380 ha         1 1AU       0.135000
     35 HAN         -2.4860     1.3850     2.3950 ha         1 1AU       0.135000
     36 HAI         -3.8550     1.1660     0.3130 ha         1 1AU       0.138000
     37 HAL         -2.8340     0.3860    -1.7880 ha         1 1AU       0.167000
     38 HNAS         0.5830    -0.8660    -2.0030 hn         1 1AU       0.311500
     39 HNAT         0.8960    -1.0350    -4.3080 hn         1 1AU       0.312500
     40 HAQ         -1.4500     1.6950    -5.8620 ha         1 1AU       0.193000
     41 HAB         -2.5270    -0.5770    -9.8810 hc         1 1AU       0.039478
     42 HABA        -3.6510    -0.0540    -8.5560 hc         1 1AU       0.039478
     43 HABB        -3.5930     0.8710   -10.1160 hc         1 1AU       0.039478
     44 HAC         -3.2450     2.1460    -7.3660 hc         1 1AU       0.039478
     45 HACA        -1.7720     3.1280    -7.7660 hc         1 1AU       0.039478
     46 HACB        -3.1270     2.9950    -8.9660 hc         1 1AU       0.039478
     47 HAA         -1.5370     2.2440   -10.6830 hc         1 1AU       0.039478
     48 HAAA        -0.5120     0.7690   -10.4340 hc         1 1AU       0.039478
     49 HAAB        -0.1430     2.2940    -9.5220 hc         1 1AU       0.039478
     50 HAP         -0.1970    -3.5660    -7.7160 ha         1 1AU       0.157000
     51 HAK          2.6360    -0.8520    -5.8330 ha         1 1AU       0.148000
     52 HAH          4.2570    -2.7110    -5.6140 ha         1 1AU       0.136000
     53 HAJ          3.7200    -4.9790    -6.4400 ha         1 1AU       0.137000
     54 HNAD         0.6420    -5.7790    -8.2060 hn         1 1AU       0.396800
     55 HNAA         2.1530    -6.3180    -7.7520 hn         1 1AU       0.396800
@<TRIPOS>BOND
     1     1     2 ar  
     2     1     6 ar  
     3     1    10 ar  
     4     2     3 ar  
     5     2    31 1   
     6     3     4 ar  
     7     3    32 1   
     8     4     5 ar  
     9     4    33 1   
    10     5     6 ar  
    11     5    34 1   
    12     6     7 ar  
    13     7     8 ar  
    14     7    35 1   
    15     8     9 ar  
    16     8    36 1   
    17     9    10 ar  
    18     9    37 1   
    19    10    11 1   
    20    11    12 1   
    21    11    38 1   
    22    12    13 2   
    23    12    14 1   
    24    14    15 1   
    25    14    39 1   
    26    15    16 2   
    27    15    23 1   
    28    16    17 1   
    29    16    40 1   
    30    17    18 1   
    31    17    22 2   
    32    18    19 1   
    33    18    20 1   
    34    18    21 1   
    35    19    41 1   
    36    19    42 1   
    37    19    43 1   
    38    20    44 1   
    39    20    45 1   
    40    20    46 1   
    41    21    47 1   
    42    21    48 1   
    43    21    49 1   
    44    22    23 1   
    45    23    24 1   
    46    24    25 ar  
    47    24    26 ar  
    48    25    29 ar  
    49    25    50 1   
    50    26    27 ar  
    51    26    51 1   
    52    27    28 ar  
    53    27    52 1   
    54    28    29 ar  
    55    28    53 1   
    56    29    30 1   
    57    30    54 1   
    58    30    55 1   
@<TRIPOS>SUBSTRUCTURE
     1 1AU         1 TEMP              0 ****  ****    0 ROOT
