@<TRIPOS>MOLECULE
1AV
   30    33     1     0     0
SMALL
bcc


@<TRIPOS>ATOM
      1 N7           0.0050     0.1850     0.0960 nv         1 1AV      -0.945500
      2 C6           1.3880     0.1690     0.0610 ca         1 1AV       0.931900
      3 N1           2.0650     0.2380     1.2710 nb         1 1AV      -0.740000
      4 N5           1.9820     0.0500    -1.1990 nb         1 1AV      -0.799000
      5 C4           3.3320    -0.0320    -1.2660 ca         1 1AV       0.662800
      6 N8           3.9170    -0.1430    -2.5350 na         1 1AV      -0.268700
      7 C12          5.1950    -0.6370    -2.8700 cc         1 1AV      -0.208600
      8 C11          5.2670    -0.6080    -4.2660 cd         1 1AV       0.290200
      9 N10          4.0680    -0.1200    -4.8100 nd         1 1AV      -0.660000
     10 C9           3.2680     0.1410    -3.7710 cc         1 1AV       0.433400
     11 C3           4.1270     0.0210    -0.0670 ca         1 1AV      -0.225200
     12 N13          5.5090    -0.0220     0.0590 nc         1 1AV      -0.489100
     13 C14          5.8450     0.0770     1.3400 cd         1 1AV       0.384800
     14 S15          4.5130     0.2300     2.4580 ss         1 1AV      -0.067500
     15 C2           3.4010     0.1630     1.1780 ca         1 1AV       0.481600
     16 C16          7.2020     0.0750     1.8530 ca         1 1AV      -0.232200
     17 C21          7.4500    -0.2860     3.1990 ca         1 1AV       0.408200
     18 N20          8.6760    -0.3030     3.7480 nb         1 1AV      -0.659000
     19 C19          9.7160     0.0410     2.9620 ca         1 1AV       0.406200
     20 C18          9.5750     0.4110     1.6130 ca         1 1AV      -0.249300
     21 C17          8.2980     0.4280     1.0510 ca         1 1AV      -0.052000
     22 H1          -0.5010     0.2530    -0.7520 hn         1 1AV       0.451300
     23 H2          -0.4520     0.3860     0.9510 hn         1 1AV       0.451300
     24 H3           5.9240    -0.9630    -2.1310 h4         1 1AV       0.204000
     25 H4           6.0960    -0.9050    -4.9080 h4         1 1AV       0.048100
     26 H5           2.2450     0.5330    -3.8180 h5         1 1AV       0.079100
     27 H6           6.6180    -0.5790     3.8680 h4         1 1AV       0.028100
     28 H7          10.7100     0.0150     3.4440 h4         1 1AV       0.028100
     29 H8          10.4570     0.6820     1.0160 ha         1 1AV       0.150000
     30 H9           8.1530     0.7150    -0.0020 ha         1 1AV       0.159000
@<TRIPOS>BOND
     1     1     2 1   
     2     1    22 1   
     3     1    23 1   
     4     2     3 ar  
     5     2     4 ar  
     6     3    15 ar  
     7     4     5 ar  
     8     5     6 1   
     9     5    11 ar  
    10     6     7 1   
    11     6    10 1   
    12     7     8 2   
    13     7    24 1   
    14     8     9 1   
    15     8    25 1   
    16     9    10 2   
    17    10    26 1   
    18    11    12 1   
    19    11    15 ar  
    20    12    13 2   
    21    13    14 1   
    22    13    16 1   
    23    14    15 1   
    24    16    17 ar  
    25    16    21 ar  
    26    17    18 ar  
    27    17    27 1   
    28    18    19 ar  
    29    19    20 ar  
    30    19    28 1   
    31    20    21 ar  
    32    20    29 1   
    33    21    30 1   
@<TRIPOS>SUBSTRUCTURE
     1 1AV         1 TEMP              0 ****  ****    0 ROOT
