@<TRIPOS>MOLECULE
1AV
   30    33     1     0     0
SMALL
bcc


@<TRIPOS>ATOM
      1 N7           0.0000     0.0000     0.0000 nv         1 1AV      -0.628500
      2 C6           1.3850     0.0000     0.0000 ca         1 1AV       0.730900
      3 N1           2.0280     0.0000     1.1540 nb         1 1AV      -0.566000
      4 N5           2.0310    -0.0060    -1.1590 nb         1 1AV      -0.621000
      5 C4           3.3520    -0.0070    -1.2110 ca         1 1AV       0.403800
      6 N8           4.0090    -0.0120    -2.4400 na         1 1AV       0.278300
      7 C12          3.5950    -0.6450    -3.5850 cc         1 1AV      -0.416600
      8 C11          4.5210    -0.3920    -4.5280 cd         1 1AV       0.330200
      9 N10          5.4780     0.3740    -3.9810 nd         1 1AV      -0.609000
     10 C9           5.1810     0.6140    -2.7330 cc         1 1AV       0.239400
     11 C3           4.0920    -0.0020    -0.0010 ca         1 1AV      -0.168200
     12 N13          5.4180    -0.0020     0.1960 nc         1 1AV      -0.440100
     13 C14          5.8490     0.0030     1.4120 cd         1 1AV       0.476800
     14 S15          4.4970     0.0090     2.5380 ss         1 1AV      -0.268500
     15 C2           3.3610    -0.0010     1.1940 ca         1 1AV       0.485600
     16 C16          7.2740     0.0030     1.8040 ca         1 1AV      -0.248200
     17 C21          8.2760     0.0020     0.8330 ca         1 1AV       0.450200
     18 N20          9.5470     0.0070     1.1810 nb         1 1AV      -0.581000
     19 C19          9.9220     0.0130     2.4460 ca         1 1AV       0.426200
     20 C18          8.9890     0.0130     3.4680 ca         1 1AV      -0.224300
     21 C17          7.6410     0.0070     3.1550 ca         1 1AV      -0.046000
     22 H1          -0.5000    -0.8610     0.1010 hn         1 1AV       0.286800
     23 H2          -0.5000     0.8610    -0.0990 hn         1 1AV       0.286800
     24 H3           2.6940    -1.2350    -3.7060 h4         1 1AV       0.161000
     25 H4           4.4990    -0.7470    -5.5510 h4         1 1AV       0.004100
     26 H5           5.7720     1.2050    -2.0440 h5         1 1AV       0.036100
     27 H6           8.0070    -0.0020    -0.2160 h4         1 1AV       0.001100
     28 H7          10.9780     0.0170     2.6890 h4         1 1AV      -0.017900
     29 H8           9.3100     0.0180     4.5030 ha         1 1AV       0.118000
     30 H9           6.8890     0.0080     3.9350 ha         1 1AV       0.119000
@<TRIPOS>BOND
     1     1     2 1   
     2     1    22 1   
     3     1    23 1   
     4     2     3 ar  
     5     2     4 ar  
     6     3    15 ar  
     7     4     5 ar  
     8     5     6 1   
     9     5    11 ar  
    10     6     7 1   
    11     6    10 1   
    12     7     8 2   
    13     7    24 1   
    14     8     9 1   
    15     8    25 1   
    16     9    10 2   
    17    10    26 1   
    18    11    12 1   
    19    11    15 ar  
    20    12    13 2   
    21    13    14 1   
    22    13    16 1   
    23    14    15 1   
    24    16    17 ar  
    25    16    21 ar  
    26    17    18 ar  
    27    17    27 1   
    28    18    19 ar  
    29    19    20 ar  
    30    19    28 1   
    31    20    21 ar  
    32    20    29 1   
    33    21    30 1   
@<TRIPOS>SUBSTRUCTURE
     1 1AV         1 TEMP              0 ****  ****    0 ROOT
