@<TRIPOS>MOLECULE
molecule
   30    33     1     0     0
SMALL
bcc


@<TRIPOS>ATOM
      1 N7           0.0000     0.0000     0.0000 nv         1 1AV      -1.051500
      2 C6           1.3850     0.0000     0.0000 ca         1 1AV       0.966900
      3 N1           2.0280     0.0000     1.1540 nb         1 1AV      -0.719000
      4 N5           2.0310    -0.0060    -1.1590 nb         1 1AV      -0.762000
      5 C4           3.3520    -0.0070    -1.2110 ca         1 1AV       0.630800
      6 N8           4.0090    -0.0120    -2.4400 na         1 1AV      -0.228700
      7 C12          3.5950    -0.6450    -3.5850 cc         1 1AV      -0.246600
      8 C11          4.5210    -0.3920    -4.5280 cd         1 1AV       0.315200
      9 N10          5.4780     0.3740    -3.9810 nd         1 1AV      -0.687000
     10 C9           5.1810     0.6140    -2.7330 cc         1 1AV       0.433400
     11 C3           4.0920    -0.0020    -0.0010 ca         1 1AV      -0.140200
     12 N13          5.4180    -0.0020     0.1960 nd         1 1AV      -0.569100
     13 C14          5.8490     0.0030     1.4120 cc         1 1AV       0.473800
     14 S15          4.4970     0.0090     2.5380 ss         1 1AV      -0.150500
     15 C2           3.3610    -0.0010     1.1940 ca         1 1AV       0.498600
     16 C16          7.2740     0.0030     1.8040 ca         1 1AV      -0.245200
     17 C21          8.2760     0.0020     0.8330 ca         1 1AV       0.470200
     18 N20          9.5470     0.0070     1.1810 nb         1 1AV      -0.686000
     19 C19          9.9220     0.0130     2.4460 ca         1 1AV       0.439200
     20 C18          8.9890     0.0130     3.4680 ca         1 1AV      -0.256300
     21 C17          7.6410     0.0070     3.1550 ca         1 1AV      -0.073000
     22 H1          -0.5000    -0.8610     0.1010 hn         1 1AV       0.452300
     23 H2          -0.5000     0.8610    -0.0990 hn         1 1AV       0.452300
     24 H3           2.6940    -1.2350    -3.7060 h4         1 1AV       0.187000
     25 H4           4.4990    -0.7470    -5.5510 h4         1 1AV       0.045100
     26 H5           5.7720     1.2050    -2.0440 h5         1 1AV       0.081100
     27 H6           8.0070    -0.0020    -0.2160 h4         1 1AV       0.050100
     28 H7          10.9780     0.0170     2.6890 h4         1 1AV       0.029100
     29 H8           9.3100     0.0180     4.5030 ha         1 1AV       0.146000
     30 H9           6.8890     0.0080     3.9350 ha         1 1AV       0.143000
@<TRIPOS>BOND
     1    18    19 ar  
     2    18    17 ar  
     3    19    20 ar  
     4    17    16 ar  
     5    20    21 ar  
     6    16    21 ar  
     7    16    13 1   
     8    14    13 1   
     9    14    15 1   
    10    13    12 2   
    11    15     3 ar  
    12    15    11 ar  
    13    12    11 1   
    14     3     2 ar  
    15    11     5 ar  
    16     2     1 1   
    17     2     4 ar  
    18     5     4 ar  
    19     5     6 1   
    20     7     6 1   
    21     7     8 2   
    22     6    10 1   
    23     8     9 1   
    24    10     9 2   
    25     1    22 1   
    26     1    23 1   
    27     7    24 1   
    28     8    25 1   
    29    10    26 1   
    30    17    27 1   
    31    19    28 1   
    32    20    29 1   
    33    21    30 1   
@<TRIPOS>SUBSTRUCTURE
     1 1AV         1 TEMP              0 ****  ****    0 ROOT
