@<TRIPOS>MOLECULE
1AW
   49    51     1     0     0
SMALL
bcc


@<TRIPOS>ATOM
      1 CBB          0.0000     0.0000     0.0000 ca         1 1AW      -0.118500
      2 CBA          1.3810     0.0000     0.0000 ca         1 1AW      -0.083500
      3 CAN          2.0740     0.0000     1.1970 ca         1 1AW      -0.114000
      4 CAI          1.3870    -0.0010     2.3970 ca         1 1AW      -0.083500
      5 CAL          0.0050    -0.0010     2.4040 ca         1 1AW      -0.118500
      6 CAX         -0.6930     0.0050     1.2030 ca         1 1AW      -0.080400
      7 NAS         -2.0920     0.0050     1.2070 ns         1 1AW      -0.049100
      8 CAU         -2.7690     0.6810     0.2570 c          1 1AW       0.556100
      9 OAE         -2.1660     1.2200    -0.6510 o          1 1AW      -0.672100
     10 NAT         -4.1130     0.7590     0.3140 ns         1 1AW      -0.024100
     11 CAZ         -4.8130     1.4580    -0.6690 cc         1 1AW      -0.231700
     12 CAQ         -4.2720     2.1010    -1.7410 cd         1 1AW      -0.334300
     13 CAY         -5.3170     2.6690    -2.4730 cd         1 1AW       0.390600
     14 CBD         -5.1700     3.4740    -3.7380 c3         1 1AW      -0.080300
     15 CAB         -4.0310     4.4810    -3.5730 c3         1 1AW       0.007233
     16 CAC         -4.8560     2.5360    -4.9060 c3         1 1AW       0.007233
     17 CAA         -6.4740     4.2220    -4.0210 c3         1 1AW       0.007233
     18 NAR         -6.4460     2.3850    -1.8740 nc         1 1AW      -0.655800
     19 NBC         -6.1630     1.6180    -0.7370 na         1 1AW       0.582300
     20 CAW         -7.1010     1.1070     0.1700 ca         1 1AW      -0.077200
     21 CAP         -8.2480     1.8320     0.4640 ca         1 1AW      -0.176000
     22 CAK         -6.8890    -0.1270     0.7700 ca         1 1AW      -0.214000
     23 CAH         -7.8130    -0.6310     1.6640 ca         1 1AW      -0.026000
     24 CAJ         -8.9530     0.0900     1.9640 ca         1 1AW      -0.194000
     25 CAV         -9.1750     1.3230     1.3620 ca         1 1AW       0.072600
     26 NAD        -10.3300     2.0490     1.6610 nv         1 1AW      -0.435200
     27 HBB         -0.5420     0.0020    -0.9380 ha         1 1AW       0.125500
     28 HBA          1.9220    -0.0020    -0.9390 ha         1 1AW       0.102500
     29 HAN          3.1580     0.0000     1.1940 ha         1 1AW       0.102000
     30 HAI          1.9330    -0.0030     3.3330 ha         1 1AW       0.102500
     31 HAL         -0.5320     0.0010     3.3440 ha         1 1AW       0.125500
     32 HNAS        -2.5910    -0.5160     1.9010 hn         1 1AW       0.160500
     33 HNAT        -4.6050     0.3540     1.0860 hn         1 1AW       0.173500
     34 HAQ         -3.2150     2.2100    -1.9510 ha         1 1AW       0.193000
     35 HAB         -4.0430     5.1790    -4.4010 hc         1 1AW       0.007589
     36 HABA        -3.0830     3.9560    -3.5570 hc         1 1AW       0.007589
     37 HABB        -4.1590     5.0220    -2.6430 hc         1 1AW       0.007589
     38 HAC         -3.8980     2.0600    -4.7390 hc         1 1AW       0.007589
     39 HACA        -5.6280     1.7790    -4.9780 hc         1 1AW       0.007589
     40 HACB        -4.8220     3.1050    -5.8270 hc         1 1AW       0.007589
     41 HAA         -6.7210     4.8510    -3.1740 hc         1 1AW       0.007589
     42 HAAA        -7.2720     3.5080    -4.1860 hc         1 1AW       0.007589
     43 HAAB        -6.3530     4.8380    -4.9050 hc         1 1AW       0.007589
     44 HAP         -8.4180     2.7930    -0.0060 ha         1 1AW       0.135000
     45 HAK         -5.9960    -0.6950     0.5370 ha         1 1AW       0.113000
     46 HAH         -7.6440    -1.5930     2.1330 ha         1 1AW       0.100000
     47 HAJ         -9.6760    -0.3080     2.6650 ha         1 1AW       0.111000
     48 HNAD       -10.9980     1.6820     2.3100 hn         1 1AW       0.268800
     49 HNAA       -10.4890     2.9370     1.2280 hn         1 1AW       0.268800
@<TRIPOS>BOND
     1     1     2 ar  
     2     1     6 ar  
     3     1    27 1   
     4     2     3 ar  
     5     2    28 1   
     6     3     4 ar  
     7     3    29 1   
     8     4     5 ar  
     9     4    30 1   
    10     5     6 ar  
    11     5    31 1   
    12     6     7 1   
    13     7     8 1   
    14     7    32 1   
    15     8     9 2   
    16     8    10 1   
    17    10    11 1   
    18    10    33 1   
    19    11    12 2   
    20    11    19 1   
    21    12    13 1   
    22    12    34 1   
    23    13    14 1   
    24    13    18 2   
    25    14    15 1   
    26    14    16 1   
    27    14    17 1   
    28    15    35 1   
    29    15    36 1   
    30    15    37 1   
    31    16    38 1   
    32    16    39 1   
    33    16    40 1   
    34    17    41 1   
    35    17    42 1   
    36    17    43 1   
    37    18    19 1   
    38    19    20 1   
    39    20    21 ar  
    40    20    22 ar  
    41    21    25 ar  
    42    21    44 1   
    43    22    23 ar  
    44    22    45 1   
    45    23    24 ar  
    46    23    46 1   
    47    24    25 ar  
    48    24    47 1   
    49    25    26 1   
    50    26    48 1   
    51    26    49 1   
@<TRIPOS>SUBSTRUCTURE
     1 1AW         1 TEMP              0 ****  ****    0 ROOT
