@<TRIPOS>MOLECULE
1AW
   49    51     1     0     0
SMALL
bcc


@<TRIPOS>ATOM
      1 CBB          0.2840     0.5310     0.0200 ca         1 1AW      -0.156000
      2 CBA          1.6430     0.8020     0.1390 ca         1 1AW      -0.108500
      3 CAN          2.2530     0.8330     1.3920 ca         1 1AW      -0.149000
      4 CAI          1.4930     0.5850     2.5320 ca         1 1AW      -0.108500
      5 CAL          0.1320     0.3030     2.4380 ca         1 1AW      -0.156000
      6 CAX         -0.4940     0.2720     1.1740 ca         1 1AW       0.057600
      7 NAS         -1.8520    -0.0740     1.0100 ns         1 1AW      -0.458100
      8 CAU         -2.8490     0.2670     1.9490 c          1 1AW       0.763100
      9 OAE         -2.5780     0.6600     3.1020 o          1 1AW      -0.591100
     10 NAT         -4.2000     0.1630     1.5100 ns         1 1AW      -0.431100
     11 CAZ         -5.2240     0.0970     2.4620 cc         1 1AW       0.018300
     12 CAQ         -5.3320     0.7340     3.7120 cd         1 1AW      -0.269300
     13 CAY         -6.6060     0.2980     4.2490 cd         1 1AW       0.331600
     14 CBD         -7.1790     0.6980     5.5740 c3         1 1AW      -0.074300
     15 CAB         -6.2270     1.6520     6.2850 c3         1 1AW      -0.086433
     16 CAC         -8.5190     1.3960     5.3640 c3         1 1AW      -0.086433
     17 CAA         -7.3830    -0.5400     6.4400 c3         1 1AW      -0.086433
     18 NAR         -7.2260    -0.5420     3.3760 nc         1 1AW      -0.498800
     19 NBC         -6.4020    -0.7080     2.3230 na         1 1AW       0.120300
     20 CAW         -6.8070    -1.3500     1.1160 ca         1 1AW       0.053800
     21 CAP         -7.2800    -2.6700     1.1690 ca         1 1AW      -0.177000
     22 CAK         -6.7320    -0.6710    -0.1170 ca         1 1AW      -0.205000
     23 CAH         -7.1040    -1.3370    -1.2810 ca         1 1AW      -0.083000
     24 CAJ         -7.5610    -2.6480    -1.2500 ca         1 1AW      -0.195000
     25 CAV         -7.6570    -3.3370    -0.0190 ca         1 1AW       0.155600
     26 NAD         -8.0400    -4.6800     0.0180 nv         1 1AW      -0.822200
     27 HBB         -0.1740     0.5150    -0.9800 ha         1 1AW       0.149000
     28 HBA          2.2360     0.9970    -0.7670 ha         1 1AW       0.134000
     29 HAN          3.3270     1.0520     1.4780 ha         1 1AW       0.134000
     30 HAI          1.9670     0.6090     3.5250 ha         1 1AW       0.134000
     31 HAL         -0.4500     0.1160     3.3550 ha         1 1AW       0.149000
     32 HNAS        -2.1320    -0.1910     0.0600 hn         1 1AW       0.307500
     33 HNAT        -4.3760    -0.3370     0.6620 hn         1 1AW       0.312500
     34 HAQ         -4.5980     1.3850     4.1770 ha         1 1AW       0.193000
     35 HAB         -5.2410     1.1600     6.4620 hc         1 1AW       0.039478
     36 HABA        -6.6600     1.9510     7.2700 hc         1 1AW       0.039478
     37 HABB        -6.0650     2.5710     5.6720 hc         1 1AW       0.039478
     38 HAC         -9.2530     0.7010     4.8920 hc         1 1AW       0.039478
     39 HACA        -8.3930     2.2870     4.7040 hc         1 1AW       0.039478
     40 HACB        -8.9270     1.7330     6.3470 hc         1 1AW       0.039478
     41 HAA         -8.1200    -1.2320     5.9670 hc         1 1AW       0.039478
     42 HAAA        -7.7680    -0.2390     7.4440 hc         1 1AW       0.039478
     43 HAAB        -6.4170    -1.0820     6.5740 hc         1 1AW       0.039478
     44 HAP         -7.3600    -3.1860     2.1400 ha         1 1AW       0.157000
     45 HAK         -6.4210     0.3830    -0.1660 ha         1 1AW       0.148000
     46 HAH         -7.0460    -0.8080    -2.2450 ha         1 1AW       0.136000
     47 HAJ         -7.8480    -3.1460    -2.1880 ha         1 1AW       0.137000
     48 HNAD        -8.3740    -4.9960     0.9010 hn         1 1AW       0.396800
     49 HNAA        -8.5970    -4.9750    -0.7520 hn         1 1AW       0.396800
@<TRIPOS>BOND
     1     1     2 ar  
     2     1     6 ar  
     3     1    27 1   
     4     2     3 ar  
     5     2    28 1   
     6     3     4 ar  
     7     3    29 1   
     8     4     5 ar  
     9     4    30 1   
    10     5     6 ar  
    11     5    31 1   
    12     6     7 1   
    13     7     8 1   
    14     7    32 1   
    15     8     9 2   
    16     8    10 1   
    17    10    11 1   
    18    10    33 1   
    19    11    12 2   
    20    11    19 1   
    21    12    13 1   
    22    12    34 1   
    23    13    14 1   
    24    13    18 2   
    25    14    15 1   
    26    14    16 1   
    27    14    17 1   
    28    15    35 1   
    29    15    36 1   
    30    15    37 1   
    31    16    38 1   
    32    16    39 1   
    33    16    40 1   
    34    17    41 1   
    35    17    42 1   
    36    17    43 1   
    37    18    19 1   
    38    19    20 1   
    39    20    21 ar  
    40    20    22 ar  
    41    21    25 ar  
    42    21    44 1   
    43    22    23 ar  
    44    22    45 1   
    45    23    24 ar  
    46    23    46 1   
    47    24    25 ar  
    48    24    47 1   
    49    25    26 1   
    50    26    48 1   
    51    26    49 1   
@<TRIPOS>SUBSTRUCTURE
     1 1AW         1 TEMP              0 ****  ****    0 ROOT
