@<TRIPOS>MOLECULE
1AX
   25    24     1     0     0
SMALL
bcc


@<TRIPOS>ATOM
      1 OAA          0.0180     0.5010     0.2220 oh         1 1AX      -0.601300
      2 CAE          1.3500     0.0340     0.0830 c3         1 1AX       0.114400
      3 CAJ          1.9600     0.0180     1.4880 c3         1 1AX       0.122100
      4 OAC          3.0650    -0.8720     1.4270 oh         1 1AX      -0.604800
      5 CAG          2.4040     1.4240     1.8950 c3         1 1AX       0.113900
      6 OAI          2.9050     1.3060     3.2270 os         1 1AX      -0.434600
      7 CAH          3.2360     2.5500     3.8230 c3         1 1AX       0.113900
      8 CAK          1.9880     3.2950     4.3040 c3         1 1AX       0.122100
      9 OAD          1.4800     4.0250     3.1960 oh         1 1AX      -0.604800
     10 CAF          2.3470     4.2750     5.4290 c3         1 1AX       0.114400
     11 OAB          2.5880     3.5040     6.5920 oh         1 1AX      -0.601300
     12 H1          -0.3940     0.4130    -0.6450 ho         1 1AX       0.404500
     13 H2           1.9290     0.7170    -0.5930 h1         1 1AX       0.033950
     14 H3           1.3630    -1.0050    -0.3410 h1         1 1AX       0.033950
     15 H4           1.2060    -0.3680     2.2300 h1         1 1AX       0.066700
     16 H5           3.5210    -0.7960     2.2740 ho         1 1AX       0.412500
     17 H6           1.5330     2.1310     1.8650 h1         1 1AX       0.060450
     18 H7           3.2230     1.7960     1.2260 h1         1 1AX       0.060450
     19 H8           3.8570     2.2670     4.7170 h1         1 1AX       0.060450
     20 H9           3.8220     3.1900     3.1140 h1         1 1AX       0.060450
     21 H10          1.2250     2.5550     4.6720 h1         1 1AX       0.066700
     22 H11          0.6100     4.3540     3.4480 ho         1 1AX       0.412500
     23 H12          1.4930     4.9830     5.6040 h1         1 1AX       0.033950
     24 H13          3.2590     4.8670     5.1540 h1         1 1AX       0.033950
     25 H14          2.8320     4.1250     7.2880 ho         1 1AX       0.404500
@<TRIPOS>BOND
     1     1     2 1   
     2     1    12 1   
     3     2     3 1   
     4     2    13 1   
     5     2    14 1   
     6     3     4 1   
     7     3     5 1   
     8     3    15 1   
     9     4    16 1   
    10     5     6 1   
    11     5    17 1   
    12     5    18 1   
    13     6     7 1   
    14     7     8 1   
    15     7    19 1   
    16     7    20 1   
    17     8     9 1   
    18     8    10 1   
    19     8    21 1   
    20     9    22 1   
    21    10    11 1   
    22    10    23 1   
    23    10    24 1   
    24    11    25 1   
@<TRIPOS>SUBSTRUCTURE
     1 1AX         1 TEMP              0 ****  ****    0 ROOT
