@<TRIPOS>MOLECULE
1AX
   25    24     1     0     0
SMALL
bcc


@<TRIPOS>ATOM
      1 OAA         0.1870   -0.4910    1.4700 oh        1 1AX     -0.614800
      2 CAE         1.4340    0.1670    1.3040 c3        1 1AX      0.092400
      3 CAJ         2.5000   -0.9310    1.2920 c3        1 1AX      0.144100
      4 OAC         2.3150   -1.8120    0.1940 oh        1 1AX     -0.604800
      5 CAG         3.8960   -0.3260    1.1170 c3        1 1AX      0.130400
      6 OAI         4.2480    0.2350    2.3800 os        1 1AX     -0.434600
      7 CAH         5.5830    0.7400    2.3810 c3        1 1AX      0.130400
      8 CAK         5.7840    1.4130    3.7420 c3        1 1AX      0.144100
      9 OAD         6.9300    2.2390    3.6040 oh        1 1AX     -0.604800
     10 CAF         5.9890    0.3630    4.8380 c3        1 1AX      0.092400
     11 OAB         6.1650    1.0830    6.0480 oh        1 1AX     -0.614800
     12 H1         -0.4880    0.1950    1.5040 ho        1 1AX      0.409000
     13 H2          1.6280    0.8710    2.1550 h1        1 1AX      0.041700
     14 H3          1.4400    0.7320    0.3340 h1        1 1AX      0.041700
     15 H4          2.4470   -1.5120    2.2550 h1        1 1AX      0.062700
     16 H5          1.3940   -2.1030    0.2340 ho        1 1AX      0.424000
     17 H6          3.8930    0.4750    0.3330 h1        1 1AX      0.046200
     18 H7          4.6250   -1.1290    0.8290 h1        1 1AX      0.046200
     19 H8          6.3080   -0.1020    2.2360 h1        1 1AX      0.046200
     20 H9          5.7150    1.4930    1.5610 h1        1 1AX      0.046200
     21 H10         4.8900    2.0480    3.9970 h1        1 1AX      0.062700
     22 H11         7.1320    2.5710    4.4890 ho        1 1AX      0.424000
     23 H12         5.0870   -0.2990    4.8970 h1        1 1AX      0.041700
     24 H13         6.9020   -0.2540    4.6250 h1        1 1AX      0.041700
     25 H14         6.2690    0.4290    6.7480 ho        1 1AX      0.409000
@<TRIPOS>BOND
     1    1    2 1   
     2    1   12 1   
     3    2    3 1   
     4    2   13 1   
     5    2   14 1   
     6    3    4 1   
     7    3    5 1   
     8    3   15 1   
     9    4   16 1   
    10    5    6 1   
    11    5   17 1   
    12    5   18 1   
    13    6    7 1   
    14    7    8 1   
    15    7   19 1   
    16    7   20 1   
    17    8    9 1   
    18    8   10 1   
    19    8   21 1   
    20    9   22 1   
    21   10   11 1   
    22   10   23 1   
    23   10   24 1   
    24   11   25 1   
@<TRIPOS>SUBSTRUCTURE
     1 1AX         1 TEMP              0 ****  ****    0 ROOT
