@<TRIPOS>MOLECULE
molecule
   25    24     1     0     0
SMALL
bcc


@<TRIPOS>ATOM
      1 OAA          0.0000     0.0000     0.0000 oh         1 1AX      -0.606800
      2 CAE          1.4290     0.0000     0.0000 c3         1 1AX       0.125900
      3 CAJ          1.9380     0.0000     1.4430 c3         1 1AX       0.154100
      4 OAC          1.5600    -1.2200     2.0820 oh         1 1AX      -0.593300
      5 CAG          3.4640     0.1250     1.4440 c3         1 1AX       0.132400
      6 OAI          3.9300     0.2420     2.7900 os         1 1AX      -0.418600
      7 CAH          5.3500     0.3660     2.9050 c3         1 1AX       0.132400
      8 CAK          5.7340     0.4840     4.3810 c3         1 1AX       0.154100
      9 OAD          5.2050     1.7000     4.9150 oh         1 1AX      -0.593300
     10 CAF          7.2580     0.4910     4.5120 c3         1 1AX       0.125900
     11 OAB          7.6180     0.4840     5.8950 oh         1 1AX      -0.606800
     12 H1          -0.3140     0.0870    -0.8850 ho         1 1AX       0.405000
     13 H2           1.7900     0.8850    -0.5110 h1         1 1AX       0.029200
     14 H3           1.7900    -0.8850    -0.5110 h1         1 1AX       0.029200
     15 H4           1.5070     0.8370     1.9780 h1         1 1AX       0.056700
     16 H5           0.9290    -1.0380     2.7590 ho         1 1AX       0.412000
     17 H6           3.7540     1.0050     0.8830 h1         1 1AX       0.032200
     18 H7           3.8990    -0.7550     0.9860 h1         1 1AX       0.032200
     19 H8           5.8240    -0.5090     2.4770 h1         1 1AX       0.032200
     20 H9           5.6790     1.2510     2.3740 h1         1 1AX       0.032200
     21 H10          5.3280    -0.3570     4.9280 h1         1 1AX       0.056700
     22 H11          4.7090     1.5110     5.6940 ho         1 1AX       0.412000
     23 H12          7.6580     1.3800     4.0390 h1         1 1AX       0.029200
     24 H13          7.6660    -0.3890     4.0290 h1         1 1AX       0.029200
     25 H14          8.5530     0.4010     5.9760 ho         1 1AX       0.405000
@<TRIPOS>BOND
     1    11    10 1   
     2    10     8 1   
     3     7     6 1   
     4     7     8 1   
     5     6     5 1   
     6     4     3 1   
     7     8     9 1   
     8     5     3 1   
     9     3     2 1   
    10     2     1 1   
    11     1    12 1   
    12     2    13 1   
    13     2    14 1   
    14     3    15 1   
    15     4    16 1   
    16     5    17 1   
    17     5    18 1   
    18     7    19 1   
    19     7    20 1   
    20     8    21 1   
    21     9    22 1   
    22    10    23 1   
    23    10    24 1   
    24    11    25 1   
@<TRIPOS>SUBSTRUCTURE
     1 1AX         1 TEMP              0 ****  ****    0 ROOT
