@<TRIPOS>MOLECULE
molecule
   64    67     1     0     0
SMALL
bcc


@<TRIPOS>ATOM
      1 C3           0.0000     0.0000     0.0000 cp         1 1AY       0.375300
      2 C5           1.3920     0.0000     0.0000 ca         1 1AY      -0.195300
      3 C6           2.0660     0.0000     1.2100 ca         1 1AY      -0.102000
      4 C4          -0.7360    -0.0000    -1.2890 cp         1 1AY       0.683000
      5 N2          -0.6760    -0.0060     1.1410 nb         1 1AY      -0.635000
      6 C7           1.3200    -0.0000     2.3820 ca         1 1AY      -0.087900
      7 C1          -0.0620    -0.0110     2.3070 ca         1 1AY       0.421200
      8 N25         -0.0500    -0.0050    -2.4230 nb         1 1AY      -0.775000
      9 C23         -0.6700    -0.0060    -3.5940 ca         1 1AY       0.512600
     10 C24          0.1220    -0.0120    -4.8750 c3         1 1AY      -0.145400
     11 N9          -2.0620     0.0000    -1.2770 nb         1 1AY      -0.757000
     12 C10         -2.7480    -0.0000    -2.4130 ca         1 1AY       0.742200
     13 C21         -2.0520    -0.0000    -3.6260 ca         1 1AY      -0.298200
     14 Cl2         -2.9050     0.0000    -5.1380 cl         1 1AY      -0.102400
     15 N11         -4.1350    -0.0010    -2.3970 nu         1 1AY      -0.908900
     16 C12         -4.8530    -0.0010    -1.1200 c3         1 1AY       0.236800
     17 C13         -6.3590    -0.0020    -1.3810 c3         1 1AY       0.195800
     18 C14         -7.0970     0.1220    -0.0730 ca         1 1AY      -0.086300
     19 C26         -7.2420     1.3600     0.5250 ca         1 1AY      -0.107500
     20 C27         -7.9170     1.4730     1.7240 ca         1 1AY      -0.133500
     21 C28         -8.4500     0.3480     2.3270 ca         1 1AY      -0.124000
     22 C29         -8.3060    -0.8900     1.7290 ca         1 1AY      -0.133500
     23 C30         -7.6330    -1.0030     0.5260 ca         1 1AY      -0.107500
     24 N15         -6.7060     1.1330    -2.2480 n7         1 1AY      -0.819200
     25 C16         -7.9440     0.8670    -2.9930 c3         1 1AY       0.154800
     26 C17         -8.2720     2.0680    -3.8820 c3         1 1AY      -0.084400
     27 C18         -9.5620     1.7910    -4.6580 c3         1 1AY      -0.077400
     28 C19         -9.8900     2.9920    -5.5480 c3         1 1AY      -0.035100
     29 C31        -11.1600     2.7200    -6.3110 ca         1 1AY      -0.082300
     30 C36        -11.1030     2.1050    -7.5490 ca         1 1AY      -0.125500
     31 C35        -12.2680     1.8550    -8.2490 ca         1 1AY      -0.125500
     32 C34        -13.4890     2.2190    -7.7130 ca         1 1AY      -0.132000
     33 C33        -13.5450     2.8320    -6.4760 ca         1 1AY      -0.125500
     34 C32        -12.3810     3.0780    -5.7720 ca         1 1AY      -0.125500
     35 H1           1.9410     0.0000    -0.9340 ha         1 1AY       0.170000
     36 H2           3.1490    -0.0000     1.2420 ha         1 1AY       0.155000
     37 H3          -0.6470    -0.0140     3.2190 h4         1 1AY       0.040100
     38 H4           1.1810    -0.0180    -4.6450 hc         1 1AY       0.062033
     39 H5          -0.1270    -0.8950    -5.4500 hc         1 1AY       0.062033
     40 H6          -0.1170     0.8740    -5.4510 hc         1 1AY       0.062033
     41 H7          -4.6440    -0.0450    -3.2570 hn         1 1AY       0.452800
     42 H8          -4.5840    -0.8860    -0.5550 h1         1 1AY       0.071200
     43 H9          -4.5850     0.8830    -0.5540 h1         1 1AY       0.071200
     44 H10         -6.6410    -0.9280    -1.8690 h1         1 1AY       0.035700
     45 H11         -6.8250     2.2410     0.0530 ha         1 1AY       0.138000
     46 H12         -8.0300     2.4430     2.1930 ha         1 1AY       0.129500
     47 H13         -8.9780     0.4370     3.2690 ha         1 1AY       0.128000
     48 H14         -8.7250    -1.7710     2.2000 ha         1 1AY       0.129500
     49 H15         -7.5210    -1.9730     0.0570 ha         1 1AY       0.138000
     50 H16         -5.9580     1.3010    -2.8920 hn         1 1AY       0.355800
     51 H18         -8.7570     0.7010    -2.2960 h1         1 1AY       0.036200
     52 H19         -7.8120    -0.0130    -3.6100 h1         1 1AY       0.036200
     53 H20         -7.4600     2.2340    -4.5790 hc         1 1AY       0.048200
     54 H21         -8.4050     2.9490    -3.2650 hc         1 1AY       0.048200
     55 H22         -9.4300     0.9100    -5.2750 hc         1 1AY       0.046200
     56 H23        -10.3740     1.6250    -3.9610 hc         1 1AY       0.046200
     57 H24        -10.0210     3.8730    -4.9310 hc         1 1AY       0.049200
     58 H25         -9.0770     3.1580    -6.2450 hc         1 1AY       0.049200
     59 H26        -10.1460     1.8200    -7.9690 ha         1 1AY       0.129500
     60 H27        -12.2240     1.3740    -9.2190 ha         1 1AY       0.128500
     61 H28        -14.4020     2.0240    -8.2630 ha         1 1AY       0.128000
     62 H29        -14.5020     3.1150    -6.0540 ha         1 1AY       0.128500
     63 H30        -12.4250     3.5580    -4.8030 ha         1 1AY       0.129500
     64 Cl8          2.1150     0.0000     3.9260 cl         1 1AY      -0.095400
@<TRIPOS>BOND
     1    64     6 1
     2     7     6 ar
     3     7     5 ar
     4     6     3 ar
     5     5     1 ar
     6     3     2 ar
     7     1     2 ar
     8     1     4 1
     9     8     4 ar
    10     8     9 ar
    11    10     9 1
    12     4    11 ar
    13     9    13 ar
    14    11    12 ar
    15    13    12 ar
    16    13    14 1
    17    12    15 1
    18    15    16 1
    19    16    17 1
    20    17    18 1
    21    17    24 1
    22    19    18 ar
    23    19    20 ar
    24    18    23 ar
    25    24    25 1
    26    20    21 ar
    27    23    22 ar
    28    25    26 1
    29    21    22 ar
    30    26    27 1
    31    30    31 ar
    32    30    29 ar
    33    27    28 1
    34    31    32 ar
    35    28    29 1
    36    29    34 ar
    37    32    33 ar
    38    34    33 ar
    39     2    35 1
    40     3    36 1
    41     7    37 1
    42    10    38 1
    43    10    39 1
    44    10    40 1
    45    15    41 1
    46    16    42 1
    47    16    43 1
    48    17    44 1
    49    19    45 1
    50    20    46 1
    51    21    47 1
    52    22    48 1
    53    23    49 1
    54    24    50 1
    55    25    51 1
    56    25    52 1
    57    26    53 1
    58    26    54 1
    59    27    55 1
    60    27    56 1
    61    28    57 1
    62    28    58 1
    63    30    59 1
    64    31    60 1
    65    32    61 1
    66    33    62 1
    67    34    63 1
@<TRIPOS>SUBSTRUCTURE
     1 1AY         1 TEMP              0 ****  ****    0 ROOT
