@<TRIPOS>MOLECULE
1AY
   65    68     1     0     0
SMALL
bcc


@<TRIPOS>ATOM
      1 C3           1.8590    -0.0990    -2.3620 cp         1 1AY       0.336300
      2 C5           2.5170     0.1860    -1.1480 ca         1 1AY      -0.169300
      3 C6           3.8700    -0.1420    -1.0220 ca         1 1AY      -0.088000
      4 C4           0.4040     0.2500    -2.5040 cp         1 1AY       0.658000
      5 N2           2.4870    -0.6770    -3.4220 nb         1 1AY      -0.683000
      6 C7           4.5220    -0.7380    -2.1040 ca         1 1AY      -0.080900
      7 C1           3.7830    -0.9850    -3.2850 ca         1 1AY       0.391200
      8 N25         -0.3630     0.2180    -1.3780 nb         1 1AY      -0.701000
      9 C23         -1.6750     0.5390    -1.5070 ca         1 1AY       0.516600
     10 C24         -2.5500     0.5140    -0.2970 c3         1 1AY      -0.169400
     11 N9          -0.0340     0.5760    -3.7550 nb         1 1AY      -0.818000
     12 C10         -1.3560     0.9000    -3.8980 ca         1 1AY       0.680200
     13 C21         -2.2290     0.8960    -2.7620 ca         1 1AY      -0.284200
     14 Cl2         -3.8580     1.3000    -2.9190 cl         1 1AY      -0.033400
     15 N11         -1.8430     1.1660    -5.1810 nu         1 1AY      -0.870900
     16 C12         -0.9720     1.6070    -6.2340 c3         1 1AY       0.201800
     17 C13         -0.4030     0.4500    -7.1070 c3         1 1AY       0.173800
     18 C14          0.1070     1.0230    -8.3980 ca         1 1AY      -0.173300
     19 C26         -0.4360     0.5800    -9.6100 ca         1 1AY      -0.113000
     20 C27          0.0140     1.1230   -10.8130 ca         1 1AY      -0.115500
     21 C28          1.0080     2.1020   -10.8120 ca         1 1AY      -0.089000
     22 C29          1.5540     2.5410    -9.6040 ca         1 1AY      -0.115500
     23 C30          1.1050     2.0060    -8.3990 ca         1 1AY      -0.113000
     24 N15          0.6820    -0.3280    -6.4090 ny         1 1AY      -0.767000
     25 C16          0.8410    -1.6840    -7.0090 c3         1 1AY       0.111800
     26 C17          2.0890    -2.4160    -6.5420 c3         1 1AY      -0.112400
     27 C18          3.3670    -1.7330    -6.9780 c3         1 1AY      -0.091400
     28 C19          4.5590    -2.6600    -6.8120 c3         1 1AY      -0.031100
     29 C31          5.8300    -1.9720    -7.1660 ca         1 1AY      -0.100300
     30 C36          6.6820    -1.4960    -6.1640 ca         1 1AY      -0.128000
     31 C35          7.8780    -0.8630    -6.5010 ca         1 1AY      -0.122000
     32 C34          8.2310    -0.7020    -7.8400 ca         1 1AY      -0.119000
     33 C33          7.3860    -1.1770    -8.8440 ca         1 1AY      -0.122000
     34 C32          6.1910    -1.8100    -8.5090 ca         1 1AY      -0.128000
     35 Cl8          6.1520    -1.1610    -2.0250 cl         1 1AY      -0.035400
     36 H1           1.9830     0.6530    -0.3060 ha         1 1AY       0.179000
     37 H2           4.4070     0.0670    -0.0820 ha         1 1AY       0.173000
     38 H3           4.2630    -1.4560    -4.1650 h4         1 1AY       0.038100
     39 H4          -3.3880    -0.2090    -0.4620 hc         1 1AY       0.079700
     40 H5          -2.9820     1.5330    -0.1330 hc         1 1AY       0.079700
     41 H6          -1.9910     0.2100     0.6230 hc         1 1AY       0.079700
     42 H7          -2.7780     1.5170    -5.2150 hn         1 1AY       0.455800
     43 H8          -0.1170     2.2320    -5.8450 h1         1 1AY       0.087200
     44 H9          -1.5730     2.2510    -6.9430 h1         1 1AY       0.087200
     45 H10         -1.2390    -0.2860    -7.3190 hx         1 1AY       0.107700
     46 H11         -1.2240    -0.1890    -9.6190 ha         1 1AY       0.138000
     47 H12         -0.4210     0.7780   -11.7650 ha         1 1AY       0.157500
     48 H13          1.3620     2.5300   -11.7640 ha         1 1AY       0.159000
     49 H14          2.3370     3.3160    -9.6020 ha         1 1AY       0.157500
     50 H15          1.5300     2.3710    -7.4510 ha         1 1AY       0.138000
     51 H16          0.4740    -0.4090    -5.3940 hn         1 1AY       0.471300
     52 H18         -0.0730    -2.2840    -6.7350 hx         1 1AY       0.094700
     53 H19          0.8700    -1.5580    -8.1310 hx         1 1AY       0.094700
     54 H20          2.0400    -3.4470    -6.9900 hc         1 1AY       0.084700
     55 H21          2.0830    -2.5390    -5.4260 hc         1 1AY       0.084700
     56 H22          3.5380    -0.8080    -6.3650 hc         1 1AY       0.047200
     57 H23          3.2930    -1.4190    -8.0530 hc         1 1AY       0.047200
     58 H24          4.6000    -3.0290    -5.7520 hc         1 1AY       0.055700
     59 H25          4.4240    -3.5610    -7.4700 hc         1 1AY       0.055700
     60 H26          6.4150    -1.6300    -5.1040 ha         1 1AY       0.127500
     61 H27          8.5470    -0.4960    -5.7080 ha         1 1AY       0.140000
     62 H28          9.1780    -0.2070    -8.1050 ha         1 1AY       0.143000
     63 H29          7.6670    -1.0590    -9.9010 ha         1 1AY       0.140000
     64 H30          5.5310    -2.1930    -9.3020 ha         1 1AY       0.127500
     65 H152         1.5690     0.1830    -6.4940 hn         1 1AY       0.471300
@<TRIPOS>BOND
     1     1     2 ar  
     2     1     4 1   
     3     1     5 ar  
     4     2     3 ar  
     5     2    36 1   
     6     3     6 ar  
     7     3    37 1   
     8     4     8 ar  
     9     4    11 ar  
    10     5     7 ar  
    11     6     7 ar  
    12     6    35 1   
    13     7    38 1   
    14     8     9 ar  
    15     9    10 1   
    16     9    13 ar  
    17    10    39 1   
    18    10    40 1   
    19    10    41 1   
    20    11    12 ar  
    21    12    13 ar  
    22    12    15 1   
    23    13    14 1   
    24    15    16 1   
    25    15    42 1   
    26    16    17 1   
    27    16    43 1   
    28    16    44 1   
    29    17    18 1   
    30    17    24 1   
    31    17    45 1   
    32    18    19 ar  
    33    18    23 ar  
    34    19    20 ar  
    35    19    46 1   
    36    20    21 ar  
    37    20    47 1   
    38    21    22 ar  
    39    21    48 1   
    40    22    23 ar  
    41    22    49 1   
    42    23    50 1   
    43    24    25 1   
    44    24    51 1   
    45    24    65 1   
    46    25    26 1   
    47    25    52 1   
    48    25    53 1   
    49    26    27 1   
    50    26    54 1   
    51    26    55 1   
    52    27    28 1   
    53    27    56 1   
    54    27    57 1   
    55    28    29 1   
    56    28    58 1   
    57    28    59 1   
    58    29    30 ar  
    59    29    34 ar  
    60    30    31 ar  
    61    30    60 1   
    62    31    32 ar  
    63    31    61 1   
    64    32    33 ar  
    65    32    62 1   
    66    33    34 ar  
    67    33    63 1   
    68    34    64 1   
@<TRIPOS>SUBSTRUCTURE
     1 1AY         1 TEMP              0 ****  ****    0 ROOT
