@<TRIPOS>MOLECULE
molecule
   47    50     1     0     0
SMALL
bcc


@<TRIPOS>ATOM
      1 O1           0.0000     0.0000     0.0000 o          1 1AZ      -0.645500
      2 C5           1.2180     0.0000     0.0000 c          1 1AZ       0.754100
      3 N1           1.8990     0.0000     1.1650 n          1 1AZ      -0.464400
      4 C4           1.1630     0.0020     2.4310 c3         1 1AZ       0.164300
      5 C3           0.9100    -1.4190     2.8670 ca         1 1AZ      -0.116300
      6 C2           1.8300    -2.0700     3.6690 ca         1 1AZ      -0.088000
      7 C1           1.5980    -3.3730     4.0680 ca         1 1AZ       0.021400
      8 Cl1          2.7520    -4.1900     5.0760 cl         1 1AZ      -0.086400
      9 C16         -0.2440    -2.0680     2.4690 ca         1 1AZ      -0.096000
     10 C17         -0.4770    -3.3710     2.8680 ca         1 1AZ      -0.124000
     11 C18          0.4440    -4.0250     3.6660 ca         1 1AZ       0.038400
     12 Cl2          0.1520    -5.6620     4.1670 cl         1 1AZ      -0.089400
     13 C6           1.9290    -0.0070    -1.2130 cc         1 1AZ      -0.361200
     14 N2           1.5650    -0.0150    -2.5520 na         1 1AZ      -0.119900
     15 C7           0.2010    -0.0170    -3.0880 c3         1 1AZ       0.035600
     16 C8           2.7190    -0.0190    -3.2720 cc         1 1AZ       0.640400
     17 N4           3.7480    -0.0140    -2.4490 nd         1 1AZ      -0.752000
     18 C13          3.3200    -0.0070    -1.1850 cd         1 1AZ       0.509200
     19 N5           3.9630     0.0000     0.0420 n          1 1AZ      -0.420300
     20 C14          5.4260     0.0010     0.1030 c3         1 1AZ       0.107300
     21 C15          3.2440    -0.0000     1.1800 c          1 1AZ       0.820500
     22 O3           3.8250     0.0000     2.2500 o          1 1AZ      -0.658500
     23 N3           2.8000    -0.0270    -4.6450 nh         1 1AZ      -0.705300
     24 C9           3.6030     1.1030    -5.1320 c3         1 1AZ       0.134300
     25 C10          3.6180     1.0900    -6.6630 c3         1 1AZ       0.137400
     26 O2           4.1210    -0.1680    -7.1190 os         1 1AZ      -0.418600
     27 C11          3.3610    -1.2920    -6.6640 c3         1 1AZ       0.137400
     28 C12          3.3450    -1.3010    -5.1330 c3         1 1AZ       0.134300
     29 H41C         1.7470     0.5130     3.1870 h1         1 1AZ       0.086700
     30 H42C         0.2170     0.5130     2.2980 h1         1 1AZ       0.086700
     31 H2           2.7040    -1.5410     4.0280 ha         1 1AZ       0.169000
     32 H16         -0.9650    -1.5560     1.8440 ha         1 1AZ       0.158000
     33 H17         -1.3800    -3.8800     2.5540 ha         1 1AZ       0.151000
     34 H71C         0.2310     0.1790    -4.1530 h1         1 1AZ       0.067700
     35 H72C        -0.3810     0.7520    -2.5950 h1         1 1AZ       0.067700
     36 H73C        -0.2540    -0.9840    -2.9110 h1         1 1AZ       0.067700
     37 H141         5.8270     0.3280    -0.8490 h1         1 1AZ       0.059700
     38 H142         5.7790    -1.0010     0.3180 h1         1 1AZ       0.059700
     39 H143         5.7550     0.6750     0.8840 h1         1 1AZ       0.059700
     40 H91C         3.1670     2.0320    -4.7840 h1         1 1AZ       0.061200
     41 H92C         4.6170     1.0110    -4.7620 h1         1 1AZ       0.061200
     42 H121         2.7230    -2.1170    -4.7840 h1         1 1AZ       0.061200
     43 H122         4.3560    -1.4270    -4.7620 h1         1 1AZ       0.061200
     44 H101         4.2570     1.8870    -7.0250 h1         1 1AZ       0.057200
     45 H102         2.6100     1.2310    -7.0350 h1         1 1AZ       0.057200
     46 H111         2.3460    -1.2150    -7.0350 h1         1 1AZ       0.057200
     47 H112         3.8170    -2.2050    -7.0250 h1         1 1AZ       0.057200
@<TRIPOS>BOND
     1     1     2 2   
     2     2     3 1   
     3     2    13 1   
     4     3     4 1   
     5     3    21 1   
     6     4     5 1   
     7     5     6 ar  
     8     5     9 ar  
     9     6     7 ar  
    10     7     8 1   
    11     7    11 ar  
    12     9    10 ar  
    13    10    11 ar  
    14    11    12 1   
    15    13    14 1   
    16    13    18 2   
    17    14    15 1   
    18    14    16 1   
    19    16    17 2   
    20    16    23 1   
    21    17    18 1   
    22    18    19 1   
    23    19    20 1   
    24    19    21 1   
    25    21    22 2   
    26    23    24 1   
    27    23    28 1   
    28    24    25 1   
    29    25    26 1   
    30    26    27 1   
    31    27    28 1   
    32     4    29 1   
    33     4    30 1   
    34     6    31 1   
    35     9    32 1   
    36    10    33 1   
    37    15    34 1   
    38    15    35 1   
    39    15    36 1   
    40    20    37 1   
    41    20    38 1   
    42    20    39 1   
    43    24    40 1   
    44    24    41 1   
    45    28    42 1   
    46    28    43 1   
    47    25    44 1   
    48    25    45 1   
    49    27    46 1   
    50    27    47 1   
@<TRIPOS>SUBSTRUCTURE
     1 1AZ         1 TEMP              0 ****  ****    0 ROOT
