@<TRIPOS>MOLECULE
1AZ
   47    50     1     0     0
SMALL
bcc


@<TRIPOS>ATOM
      1 O1           0.0000     0.0000     0.0000 o          1 1AZ      -0.692500
      2 C5           1.2180     0.0000     0.0000 c          1 1AZ       0.689100
      3 N1           1.8990     0.0000     1.1650 n          1 1AZ      -0.078400
      4 C4           1.1630     0.0020     2.4310 c3         1 1AZ       0.100300
      5 C3           0.9100    -1.4190     2.8670 ca         1 1AZ      -0.123300
      6 C2           1.8300    -2.0700     3.6690 ca         1 1AZ      -0.066000
      7 C1           1.5980    -3.3730     4.0680 ca         1 1AZ      -0.047600
      8 Cl1          2.7520    -4.1900     5.0760 cl         1 1AZ      -0.002400
      9 C16         -0.2440    -2.0680     2.4690 ca         1 1AZ      -0.072000
     10 C17         -0.4770    -3.3710     2.8680 ca         1 1AZ      -0.099000
     11 C18          0.4440    -4.0250     3.6660 ca         1 1AZ      -0.032600
     12 Cl2          0.1520    -5.6620     4.1670 cl         1 1AZ      -0.007400
     13 C6           1.9290    -0.0070    -1.2130 cc         1 1AZ      -0.554200
     14 N2           1.5650    -0.0150    -2.5520 na         1 1AZ       0.412100
     15 C7           0.2010    -0.0170    -3.0880 c3         1 1AZ      -0.033400
     16 C8           2.7190    -0.0190    -3.2720 cc         1 1AZ       0.339400
     17 N4           3.7480    -0.0140    -2.4490 nd         1 1AZ      -0.653000
     18 C13          3.3200    -0.0070    -1.1850 cd         1 1AZ       0.336200
     19 N5           3.9630     0.0000     0.0420 n          1 1AZ      -0.000300
     20 C14          5.4260     0.0010     0.1030 c3         1 1AZ       0.064300
     21 C15          3.2440    -0.0000     1.1800 c          1 1AZ       0.599500
     22 O3           3.8250     0.0000     2.2500 o          1 1AZ      -0.711500
     23 N3           2.8000    -0.0270    -4.6450 nh         1 1AZ      -0.478300
     24 C9           3.6030     1.1030    -5.1320 c3         1 1AZ       0.107300
     25 C10          3.6180     1.0900    -6.6630 c3         1 1AZ       0.213900
     26 O2           4.1210    -0.1680    -7.1190 os         1 1AZ      -0.406600
     27 C11          3.3610    -1.2920    -6.6640 c3         1 1AZ       0.213900
     28 C12          3.3450    -1.3010    -5.1330 c3         1 1AZ       0.107300
     29 H41C         1.7470     0.5130     3.1870 h1         1 1AZ       0.054200
     30 H42C         0.2170     0.5130     2.2980 h1         1 1AZ       0.054200
     31 H2           2.7040    -1.5410     4.0280 ha         1 1AZ       0.140000
     32 H16         -0.9650    -1.5560     1.8440 ha         1 1AZ       0.129000
     33 H17         -1.3800    -3.8800     2.5540 ha         1 1AZ       0.118000
     34 H71C         0.2310     0.1790    -4.1530 h1         1 1AZ       0.040033
     35 H72C        -0.3810     0.7520    -2.5950 h1         1 1AZ       0.040033
     36 H73C        -0.2540    -0.9840    -2.9110 h1         1 1AZ       0.040033
     37 H141         5.8270     0.3280    -0.8490 h1         1 1AZ       0.027367
     38 H142         5.7790    -1.0010     0.3180 h1         1 1AZ       0.027367
     39 H143         5.7550     0.6750     0.8840 h1         1 1AZ       0.027367
     40 H91C         3.1670     2.0320    -4.7840 h1         1 1AZ       0.029700
     41 H92C         4.6170     1.0110    -4.7620 h1         1 1AZ       0.029700
     42 H121         2.7230    -2.1170    -4.7840 h1         1 1AZ       0.029700
     43 H122         4.3560    -1.4270    -4.7620 h1         1 1AZ       0.029700
     44 H101         4.2570     1.8870    -7.0250 h1         1 1AZ       0.014200
     45 H102         2.6100     1.2310    -7.0350 h1         1 1AZ       0.014200
     46 H111         2.3460    -1.2150    -7.0350 h1         1 1AZ       0.014200
     47 H112         3.8170    -2.2050    -7.0250 h1         1 1AZ       0.014200
@<TRIPOS>BOND
     1     1     2 2   
     2     2     3 1   
     3     2    13 1   
     4     3     4 1   
     5     3    21 1   
     6     4     5 1   
     7     4    29 1   
     8     4    30 1   
     9     5     6 ar  
    10     5     9 ar  
    11     6     7 ar  
    12     6    31 1   
    13     7     8 1   
    14     7    11 ar  
    15     9    10 ar  
    16     9    32 1   
    17    10    11 ar  
    18    10    33 1   
    19    11    12 1   
    20    13    14 1   
    21    13    18 2   
    22    14    15 1   
    23    14    16 1   
    24    15    34 1   
    25    15    35 1   
    26    15    36 1   
    27    16    17 2   
    28    16    23 1   
    29    17    18 1   
    30    18    19 1   
    31    19    20 1   
    32    19    21 1   
    33    20    37 1   
    34    20    38 1   
    35    20    39 1   
    36    21    22 2   
    37    23    24 1   
    38    23    28 1   
    39    24    25 1   
    40    24    40 1   
    41    24    41 1   
    42    25    26 1   
    43    25    44 1   
    44    25    45 1   
    45    26    27 1   
    46    27    28 1   
    47    27    46 1   
    48    27    47 1   
    49    28    42 1   
    50    28    43 1   
@<TRIPOS>SUBSTRUCTURE
     1 1AZ         1 TEMP              0 ****  ****    0 ROOT
