@<TRIPOS>MOLECULE
1AZ
   47    50     1     0     0
SMALL
bcc


@<TRIPOS>ATOM
      1 O1          -0.0870     0.0130     0.1080 o          1 1AZ      -0.634500
      2 C5           1.1570     0.0450     0.0630 c          1 1AZ       0.767100
      3 N1           1.9230     0.1070     1.2490 n          1 1AZ      -0.481400
      4 C4           1.2360     0.0720     2.5310 c3         1 1AZ       0.141300
      5 C3           1.0050    -1.3100     3.0710 ca         1 1AZ      -0.113300
      6 C2          -0.1720    -1.9910     2.7540 ca         1 1AZ      -0.096000
      7 C1          -0.4100    -3.2610     3.2920 ca         1 1AZ       0.008400
      8 Cl1         -1.8510    -4.0640     2.8970 cl         1 1AZ      -0.071400
      9 C16          1.9560    -1.9030     3.9070 ca         1 1AZ      -0.098000
     10 C17          1.7220    -3.1660     4.4440 ca         1 1AZ      -0.126000
     11 C18          0.5380    -3.8490     4.1430 ca         1 1AZ       0.026400
     12 Cl2          0.2790    -5.3850     4.8160 cl         1 1AZ      -0.071400
     13 C6           1.9470     0.0360    -1.1540 cc         1 1AZ      -0.352200
     14 N2           1.5570    -0.0200    -2.4940 na         1 1AZ      -0.130900
     15 C7           0.2170    -0.0550    -2.9870 c3         1 1AZ       0.014600
     16 C8           2.7490    -0.0060    -3.2490 cc         1 1AZ       0.628400
     17 N4           3.8770     0.0470    -2.4460 nd         1 1AZ      -0.704000
     18 C13          3.3780     0.0680    -1.1420 cd         1 1AZ       0.496200
     19 N5           4.0770     0.1220     0.0570 n          1 1AZ      -0.417300
     20 C14          5.5160     0.1190     0.0650 c3         1 1AZ       0.090300
     21 C15          3.3430     0.1130     1.2660 c          1 1AZ       0.820500
     22 O3           3.9570     0.1380     2.3570 o          1 1AZ      -0.647500
     23 N3           2.7130    -0.1050    -4.6740 nh         1 1AZ      -0.704300
     24 C9           2.4940     1.1880    -5.3240 c3         1 1AZ       0.136800
     25 C10          2.4290     1.0410    -6.8500 c3         1 1AZ       0.124400
     26 O2           3.5680     0.3610    -7.3630 os         1 1AZ      -0.409600
     27 C11          3.7470    -0.9180    -6.7650 c3         1 1AZ       0.124400
     28 C12          3.8620    -0.8150    -5.2380 c3         1 1AZ       0.136800
     29 H41C         0.2410     0.5890     2.3920 h1         1 1AZ       0.087200
     30 H42C         1.8520     0.6610     3.2730 h1         1 1AZ       0.087200
     31 H2          -0.9050    -1.5280     2.0710 ha         1 1AZ       0.169000
     32 H16          2.8950    -1.3680     4.1290 ha         1 1AZ       0.162000
     33 H17          2.4710    -3.6300     5.1050 ha         1 1AZ       0.153000
     34 H71C        -0.0400     0.9290    -3.4650 h1         1 1AZ       0.072367
     35 H72C         0.1190    -0.8710    -3.7530 h1         1 1AZ       0.072367
     36 H73C        -0.4890    -0.2470    -2.1320 h1         1 1AZ       0.072367
     37 H141         5.8920     0.9820    -0.5470 h1         1 1AZ       0.063367
     38 H142         5.8950    -0.8390    -0.3820 h1         1 1AZ       0.063367
     39 H143         5.8890     0.2140     1.1200 h1         1 1AZ       0.063367
     40 H91C         1.5140     1.6030    -4.9580 h1         1 1AZ       0.059950
     41 H92C         3.3100     1.9230    -5.0670 h1         1 1AZ       0.059950
     42 H121         4.8350    -0.3030    -4.9890 h1         1 1AZ       0.059950
     43 H122         3.8810    -1.8490    -4.7980 h1         1 1AZ       0.059950
     44 H101         2.4660     2.0530    -7.3320 h1         1 1AZ       0.059700
     45 H102         1.4960     0.4990    -7.1580 h1         1 1AZ       0.059700
     46 H111         4.7130    -1.2950    -7.1940 h1         1 1AZ       0.059700
     47 H112         2.9020    -1.5940    -7.0600 h1         1 1AZ       0.059700
@<TRIPOS>BOND
     1     1     2 2   
     2     2     3 1   
     3     2    13 1   
     4     3     4 1   
     5     3    21 1   
     6     4     5 1   
     7     4    29 1   
     8     4    30 1   
     9     5     6 ar  
    10     5     9 ar  
    11     6     7 ar  
    12     6    31 1   
    13     7     8 1   
    14     7    11 ar  
    15     9    10 ar  
    16     9    32 1   
    17    10    11 ar  
    18    10    33 1   
    19    11    12 1   
    20    13    14 1   
    21    13    18 2   
    22    14    15 1   
    23    14    16 1   
    24    15    34 1   
    25    15    35 1   
    26    15    36 1   
    27    16    17 2   
    28    16    23 1   
    29    17    18 1   
    30    18    19 1   
    31    19    20 1   
    32    19    21 1   
    33    20    37 1   
    34    20    38 1   
    35    20    39 1   
    36    21    22 2   
    37    23    24 1   
    38    23    28 1   
    39    24    25 1   
    40    24    40 1   
    41    24    41 1   
    42    25    26 1   
    43    25    44 1   
    44    25    45 1   
    45    26    27 1   
    46    27    28 1   
    47    27    46 1   
    48    27    47 1   
    49    28    42 1   
    50    28    43 1   
@<TRIPOS>SUBSTRUCTURE
     1 1AZ         1 TEMP              0 ****  ****    0 ROOT
