@<TRIPOS>MOLECULE
1B0
   60    63     1     0     0
SMALL
bcc


@<TRIPOS>ATOM
      1 O24         -1.2100     0.1410    -0.1700 o          1 1B0      -0.441100
      2 C23         -0.0980    -0.2380    -0.5070 c          1 1B0       0.553100
      3 N4           0.7050    -1.0180     0.5080 ny         1 1B0      -0.671800
      4 C5           0.5120    -0.5620     1.9250 c3         1 1B0       0.047500
      5 C13          1.4120     0.6660     2.2090 c          1 1B0       0.651100
      6 N15          1.0810     1.5000     3.2420 n          1 1B0      -0.350000
      7 C17         -0.1010     1.3240     4.0210 ca         1 1B0      -0.015400
      8 C22         -0.0100     0.8320     5.3400 ca         1 1B0      -0.132000
      9 C21         -1.1610     0.7080     6.1150 ca         1 1B0      -0.116500
     10 C20         -2.4050     1.0660     5.5970 ca         1 1B0      -0.108000
     11 C19         -2.5000     1.5540     4.2940 ca         1 1B0      -0.116500
     12 C18         -1.3610     1.6880     3.5040 ca         1 1B0      -0.132000
     13 C16          1.9260     2.6240     3.5850 c3         1 1B0       0.073300
     14 O14          2.4210     0.8470     1.4900 o          1 1B0      -0.626100
     15 C6           0.8730    -1.6730     2.9240 c3         1 1B0      -0.050100
     16 C7           0.1320    -2.9310     2.6450 ca         1 1B0      -0.150300
     17 C12         -1.1920    -3.0830     3.0730 ca         1 1B0      -0.129000
     18 C11         -1.8730    -4.2750     2.8340 ca         1 1B0      -0.118000
     19 C10         -1.2370    -5.3240     2.1700 ca         1 1B0      -0.103000
     20 C9           0.0840    -5.1800     1.7450 ca         1 1B0      -0.118000
     21 C8           0.7680    -3.9880     1.9800 ca         1 1B0      -0.129000
     22 C25          0.5880    -0.0110    -1.8340 c3         1 1B0      -0.051200
     23 C1           1.3550    -1.1690    -2.2880 cc         1 1B0      -0.265400
     24 C26          2.7330    -1.4530    -1.9410 ca         1 1B0      -0.107800
     25 C31          3.6850    -0.8290    -1.1280 ca         1 1B0      -0.137000
     26 C30          4.9510    -1.3870    -1.0370 ca         1 1B0      -0.120000
     27 C29          5.2930    -2.5540    -1.7440 ca         1 1B0      -0.106000
     28 C28          4.3830    -3.1970    -2.5680 ca         1 1B0      -0.122000
     29 C27          3.0970    -2.6420    -2.6730 ca         1 1B0      -0.046200
     30 N3           1.9860    -3.0520    -3.4190 na         1 1B0      -0.169400
     31 C2           0.9440    -2.1510    -3.2090 cd         1 1B0       0.020700
     32 C32         -0.3590    -2.2760    -3.8940 c3         1 1B0      -0.068900
     33 H4           0.4420    -2.0120     0.4460 hn         1 1B0       0.482300
     34 H251         1.2670     0.8810    -1.7020 hc         1 1B0       0.118200
     35 H252        -0.2150     0.2710    -2.5720 hc         1 1B0       0.118200
     36 H5          -0.5820    -0.2880     2.0460 hx         1 1B0       0.139700
     37 H61C         1.9810    -1.8540     2.9080 hc         1 1B0       0.094200
     38 H62C         0.6080    -1.2860     3.9490 hc         1 1B0       0.094200
     39 H161         2.8870     2.5740     3.0060 h1         1 1B0       0.068367
     40 H162         2.1480     2.5950     4.6850 h1         1 1B0       0.068367
     41 H163         1.3930     3.5810     3.3400 h1         1 1B0       0.068367
     42 H22          0.9670     0.5610     5.7700 ha         1 1B0       0.147000
     43 H18         -1.4540     2.0950     2.4850 ha         1 1B0       0.147000
     44 H21         -1.0810     0.3320     7.1470 ha         1 1B0       0.153500
     45 H20         -3.3090     0.9730     6.2190 ha         1 1B0       0.155000
     46 H19         -3.4810     1.8480     3.8860 ha         1 1B0       0.153500
     47 H12         -1.6920    -2.2630     3.6120 ha         1 1B0       0.139000
     48 H8           1.8220    -3.8950     1.6740 ha         1 1B0       0.139000
     49 H11         -2.9130    -4.3910     3.1800 ha         1 1B0       0.151500
     50 H10         -1.7740    -6.2690     1.9900 ha         1 1B0       0.153000
     51 H9           0.5930    -6.0130     1.2350 ha         1 1B0       0.151500
     52 H31          3.4470     0.1030    -0.5890 ha         1 1B0       0.151000
     53 H30          5.7150    -0.9020    -0.4070 ha         1 1B0       0.150000
     54 H29          6.3130    -2.9590    -1.6460 ha         1 1B0       0.151000
     55 H28          4.6590    -4.1010    -3.1290 ha         1 1B0       0.151000
     56 H3           1.9800    -3.7890    -4.0770 hn         1 1B0       0.316700
     57 H321        -0.2410    -2.0760    -4.9900 hc         1 1B0       0.070033
     58 H322        -1.0860    -1.5360    -3.4780 hc         1 1B0       0.070033
     59 H323        -0.7870    -3.3030    -3.7680 hc         1 1B0       0.070033
     60 H42          1.7110    -0.9290     0.2640 hn         1 1B0       0.482300
@<TRIPOS>BOND
     1     1     2 2   
     2     2     3 1   
     3     2    22 1   
     4     3     4 1   
     5     3    33 1   
     6     3    60 1   
     7     4     5 1   
     8     4    15 1   
     9     4    36 1   
    10     5     6 1   
    11     5    14 2   
    12     6     7 1   
    13     6    13 1   
    14     7     8 ar  
    15     7    12 ar  
    16     8     9 ar  
    17     8    42 1   
    18     9    10 ar  
    19     9    44 1   
    20    10    11 ar  
    21    10    45 1   
    22    11    12 ar  
    23    11    46 1   
    24    12    43 1   
    25    13    39 1   
    26    13    40 1   
    27    13    41 1   
    28    15    16 1   
    29    15    37 1   
    30    15    38 1   
    31    16    17 ar  
    32    16    21 ar  
    33    17    18 ar  
    34    17    47 1   
    35    18    19 ar  
    36    18    49 1   
    37    19    20 ar  
    38    19    50 1   
    39    20    21 ar  
    40    20    51 1   
    41    21    48 1   
    42    22    23 1   
    43    22    34 1   
    44    22    35 1   
    45    23    24 1   
    46    23    31 2   
    47    24    25 ar  
    48    24    29 ar  
    49    25    26 ar  
    50    25    52 1   
    51    26    27 ar  
    52    26    53 1   
    53    27    28 ar  
    54    27    54 1   
    55    28    29 ar  
    56    28    55 1   
    57    29    30 1   
    58    30    31 1   
    59    30    56 1   
    60    31    32 1   
    61    32    57 1   
    62    32    58 1   
    63    32    59 1   
@<TRIPOS>SUBSTRUCTURE
     1 1B0         1 TEMP              0 ****  ****    0 ROOT
