@<TRIPOS>MOLECULE
molecule
   59    62     1     0     0
SMALL
bcc


@<TRIPOS>ATOM
      1 O24          0.0000     0.0000     0.0000 o          1 1B0      -0.592100
      2 C23          1.2130     0.0000     0.0000 c          1 1B0       0.658100
      3 N4           1.8880     0.0000     1.1670 ns         1 1B0      -0.571900
      4 C5           1.1590     0.1050     2.4330 c3         1 1B0       0.047700
      5 C13          1.8380     1.1150     3.3210 c          1 1B0       0.651100
      6 N15          1.3410     1.3790     4.5450 n          1 1B0      -0.403000
      7 C17          1.9240     2.3740     5.3380 ca         1 1B0       0.051600
      8 C22          1.8410     3.7060     4.9570 ca         1 1B0      -0.122000
      9 C21          2.4180     4.6860     5.7420 ca         1 1B0      -0.121500
     10 C20          3.0780     4.3400     6.9070 ca         1 1B0      -0.128000
     11 C19          3.1620     3.0130     7.2900 ca         1 1B0      -0.121500
     12 C18          2.5830     2.0300     6.5120 ca         1 1B0      -0.122000
     13 C16          0.1890     0.6260     5.0460 c3         1 1B0       0.088300
     14 O14          2.8330     1.6910     2.9340 o          1 1B0      -0.589100
     15 C6           1.1450    -1.2580     3.1290 c3         1 1B0      -0.064100
     16 C7           0.3690    -2.2420     2.2910 ca         1 1B0      -0.075300
     17 C12          1.0350    -3.0830     1.4190 ca         1 1B0      -0.115500
     18 C11          0.3240    -3.9850     0.6500 ca         1 1B0      -0.122500
     19 C10         -1.0530    -4.0460     0.7540 ca         1 1B0      -0.127000
     20 C9          -1.7180    -3.2060     1.6270 ca         1 1B0      -0.122500
     21 C8          -1.0060    -2.3070     2.3980 ca         1 1B0      -0.115500
     22 C25          1.9660    -0.0050    -1.3060 c3         1 1B0      -0.070200
     23 C1           0.9890     0.0810    -2.4500 cc         1 1B0      -0.140400
     24 C26          0.4930     1.3070    -3.0810 ca         1 1B0      -0.082800
     25 C31          0.7210     2.6680    -2.8710 ca         1 1B0      -0.079000
     26 C30          0.0860     3.5910    -3.6520 ca         1 1B0      -0.157000
     27 C29         -0.7870     3.1870    -4.6530 ca         1 1B0      -0.112000
     28 C28         -1.0270     1.8490    -4.8780 ca         1 1B0      -0.144000
     29 C27         -0.3900     0.8920    -4.0950 ca         1 1B0      -0.035200
     30 N3          -0.4180    -0.4840    -4.0700 na         1 1B0      -0.178400
     31 C2           0.4140    -0.9490    -3.0890 cd         1 1B0      -0.031300
     32 C32          0.6470    -2.4040    -2.7690 c3         1 1B0      -0.033900
     33 H4           2.8880    -0.0310     1.1660 hn         1 1B0       0.327500
     34 H251         2.5390    -0.9210    -1.3890 hc         1 1B0       0.064200
     35 H252         2.6380     0.8440    -1.3390 hc         1 1B0       0.064200
     36 H5           0.1410     0.4220     2.2390 h1         1 1B0       0.110700
     37 H61C         0.6760    -1.1630     4.1010 hc         1 1B0       0.061200
     38 H62C         2.1620    -1.6110     3.2510 hc         1 1B0       0.061200
     39 H161        -0.2720     1.1700     5.8620 h1         1 1B0       0.046700
     40 H162         0.5170    -0.3440     5.3990 h1         1 1B0       0.046700
     41 H163        -0.5320     0.4940     4.2480 h1         1 1B0       0.046700
     42 H22          1.3240     3.9770     4.0440 ha         1 1B0       0.137500
     43 H18          2.6490     0.9910     6.8130 ha         1 1B0       0.137500
     44 H21          2.3530     5.7250     5.4450 ha         1 1B0       0.133000
     45 H20          3.5310     5.1100     7.5200 ha         1 1B0       0.131000
     46 H19          3.6780     2.7460     8.2040 ha         1 1B0       0.133000
     47 H12          2.1140    -3.0340     1.3380 ha         1 1B0       0.125000
     48 H8          -1.5280    -1.6480     3.0820 ha         1 1B0       0.125000
     49 H11          0.8460    -4.6440    -0.0340 ha         1 1B0       0.127500
     50 H10         -1.6100    -4.7520     0.1510 ha         1 1B0       0.127000
     51 H9          -2.7970    -3.2560     1.7100 ha         1 1B0       0.127500
     52 H31          1.4010     2.9910    -2.0910 ha         1 1B0       0.129000
     53 H30          0.2640     4.6470    -3.4880 ha         1 1B0       0.127000
     54 H29         -1.2830     3.9310    -5.2640 ha         1 1B0       0.127000
     55 H28         -1.7100     1.5430    -5.6620 ha         1 1B0       0.123000
     56 H3          -0.9600    -1.0590    -4.6840 hn         1 1B0       0.293700
     57 H321         1.5150    -2.4980    -2.1280 hc         1 1B0       0.049367
     58 H322        -0.2220    -2.8050    -2.2610 hc         1 1B0       0.049367
     59 H323         0.8140    -2.9530    -3.6870 hc         1 1B0       0.049367
@<TRIPOS>BOND
     1     1     2 2
     2     2     3 1
     3     2    22 1
     4     3     4 1
     5     4     5 1
     6     4    15 1
     7     5     6 1
     8     5    14 2
     9     6     7 1
    10     6    13 1
    11     7     8 ar
    12     7    12 ar
    13     8     9 ar
    14     9    10 ar
    15    10    11 ar
    16    11    12 ar
    17    15    16 1
    18    16    17 ar
    19    16    21 ar
    20    17    18 ar
    21    18    19 ar
    22    19    20 ar
    23    20    21 ar
    24    22    23 1
    25    23    24 1
    26    23    31 2
    27    24    25 ar
    28    24    29 ar
    29    25    26 ar
    30    26    27 ar
    31    27    28 ar
    32    28    29 ar
    33    29    30 1
    34    30    31 1
    35    31    32 1
    36     3    33 1
    37    22    34 1
    38    22    35 1
    39     4    36 1
    40    15    37 1
    41    15    38 1
    42    13    39 1
    43    13    40 1
    44    13    41 1
    45     8    42 1
    46    12    43 1
    47     9    44 1
    48    10    45 1
    49    11    46 1
    50    17    47 1
    51    21    48 1
    52    18    49 1
    53    19    50 1
    54    20    51 1
    55    25    52 1
    56    26    53 1
    57    27    54 1
    58    28    55 1
    59    30    56 1
    60    32    57 1
    61    32    58 1
    62    32    59 1
@<TRIPOS>SUBSTRUCTURE
     1 1B0         1 TEMP              0 ****  ****    0 ROOT
