@<TRIPOS>MOLECULE
1B0
   59    62     1     0     0
SMALL
bcc


@<TRIPOS>ATOM
      1 O24          0.0000     0.0000     0.0000 o          1 1B0      -0.638100
      2 C23          1.2130     0.0000     0.0000 c          1 1B0       0.568100
      3 N4           1.8880     0.0000     1.1670 ns         1 1B0      -0.175900
      4 C5           1.1590     0.1050     2.4330 c3         1 1B0      -0.058300
      5 C13          1.8380     1.1150     3.3210 c          1 1B0       0.567100
      6 N15          1.3410     1.3790     4.5450 n          1 1B0      -0.021000
      7 C17          1.9240     2.3740     5.3380 ca         1 1B0      -0.079400
      8 C22          1.8410     3.7060     4.9570 ca         1 1B0      -0.088000
      9 C21          2.4180     4.6860     5.7420 ca         1 1B0      -0.093500
     10 C20          3.0780     4.3400     6.9070 ca         1 1B0      -0.094000
     11 C19          3.1620     3.0130     7.2900 ca         1 1B0      -0.093500
     12 C18          2.5830     2.0300     6.5120 ca         1 1B0      -0.088000
     13 C16          0.1890     0.6260     5.0460 c3         1 1B0       0.050300
     14 O14          2.8330     1.6910     2.9340 o          1 1B0      -0.635100
     15 C6           1.1450    -1.2580     3.1290 c3         1 1B0      -0.018100
     16 C7           0.3690    -2.2420     2.2910 ca         1 1B0      -0.084300
     17 C12          1.0350    -3.0830     1.4190 ca         1 1B0      -0.090500
     18 C11          0.3240    -3.9850     0.6500 ca         1 1B0      -0.094000
     19 C10         -1.0530    -4.0460     0.7540 ca         1 1B0      -0.100000
     20 C9          -1.7180    -3.2060     1.6270 ca         1 1B0      -0.094000
     21 C8          -1.0060    -2.3070     2.3980 ca         1 1B0      -0.090500
     22 C25          1.9660    -0.0050    -1.3060 c3         1 1B0       0.003800
     23 C1           0.9890     0.0810    -2.4500 cc         1 1B0      -0.131400
     24 C26          0.4930     1.3070    -3.0810 ca         1 1B0      -0.080800
     25 C31          0.7210     2.6680    -2.8710 ca         1 1B0      -0.044000
     26 C30          0.0860     3.5910    -3.6520 ca         1 1B0      -0.134000
     27 C29         -0.7870     3.1870    -4.6530 ca         1 1B0      -0.089000
     28 C28         -1.0270     1.8490    -4.8780 ca         1 1B0      -0.104000
     29 C27         -0.3900     0.8920    -4.0950 ca         1 1B0      -0.225200
     30 N3          -0.4180    -0.4840    -4.0700 na         1 1B0       0.363600
     31 C2           0.4140    -0.9490    -3.0890 cd         1 1B0      -0.236300
     32 C32          0.6470    -2.4040    -2.7690 c3         1 1B0       0.089100
     33 H4           2.8880    -0.0310     1.1660 hn         1 1B0       0.188500
     34 H251         2.5390    -0.9210    -1.3890 hc         1 1B0       0.029200
     35 H252         2.6380     0.8440    -1.3390 hc         1 1B0       0.029200
     36 H5           0.1410     0.4220     2.2390 h1         1 1B0       0.086700
     37 H61C         0.6760    -1.1630     4.1010 hc         1 1B0       0.037200
     38 H62C         2.1620    -1.6110     3.2510 hc         1 1B0       0.037200
     39 H161        -0.2720     1.1700     5.8620 h1         1 1B0       0.020700
     40 H162         0.5170    -0.3440     5.3990 h1         1 1B0       0.020700
     41 H163        -0.5320     0.4940     4.2480 h1         1 1B0       0.020700
     42 H22          1.3240     3.9770     4.0440 ha         1 1B0       0.109500
     43 H18          2.6490     0.9910     6.8130 ha         1 1B0       0.109500
     44 H21          2.3530     5.7250     5.4450 ha         1 1B0       0.104500
     45 H20          3.5310     5.1100     7.5200 ha         1 1B0       0.103000
     46 H19          3.6780     2.7460     8.2040 ha         1 1B0       0.104500
     47 H12          2.1140    -3.0340     1.3380 ha         1 1B0       0.101000
     48 H8          -1.5280    -1.6480     3.0820 ha         1 1B0       0.101000
     49 H11          0.8460    -4.6440    -0.0340 ha         1 1B0       0.101000
     50 H10         -1.6100    -4.7520     0.1510 ha         1 1B0       0.100000
     51 H9          -2.7970    -3.2560     1.7100 ha         1 1B0       0.101000
     52 H31          1.4010     2.9910    -2.0910 ha         1 1B0       0.099000
     53 H30          0.2640     4.6470    -3.4880 ha         1 1B0       0.100000
     54 H29         -1.2830     3.9310    -5.2640 ha         1 1B0       0.098000
     55 H28         -1.7100     1.5430    -5.6620 ha         1 1B0       0.096000
     56 H3          -0.9600    -1.0590    -4.6840 hn         1 1B0       0.110700
     57 H321         1.5150    -2.4980    -2.1280 hc         1 1B0       0.009700
     58 H322        -0.2220    -2.8050    -2.2610 hc         1 1B0       0.009700
     59 H323         0.8140    -2.9530    -3.6870 hc         1 1B0       0.009700
@<TRIPOS>BOND
     1     1     2 2   
     2     2     3 1   
     3     2    22 1   
     4     3     4 1   
     5     3    33 1   
     6     4     5 1   
     7     4    15 1   
     8     4    36 1   
     9     5     6 1   
    10     5    14 2   
    11     6     7 1   
    12     6    13 1   
    13     7     8 ar  
    14     7    12 ar  
    15     8     9 ar  
    16     8    42 1   
    17     9    10 ar  
    18     9    44 1   
    19    10    11 ar  
    20    10    45 1   
    21    11    12 ar  
    22    11    46 1   
    23    12    43 1   
    24    13    39 1   
    25    13    40 1   
    26    13    41 1   
    27    15    16 1   
    28    15    37 1   
    29    15    38 1   
    30    16    17 ar  
    31    16    21 ar  
    32    17    18 ar  
    33    17    47 1   
    34    18    19 ar  
    35    18    49 1   
    36    19    20 ar  
    37    19    50 1   
    38    20    21 ar  
    39    20    51 1   
    40    21    48 1   
    41    22    23 1   
    42    22    34 1   
    43    22    35 1   
    44    23    24 1   
    45    23    31 2   
    46    24    25 ar  
    47    24    29 ar  
    48    25    26 ar  
    49    25    52 1   
    50    26    27 ar  
    51    26    53 1   
    52    27    28 ar  
    53    27    54 1   
    54    28    29 ar  
    55    28    55 1   
    56    29    30 1   
    57    30    31 1   
    58    30    56 1   
    59    31    32 1   
    60    32    57 1   
    61    32    58 1   
    62    32    59 1   
@<TRIPOS>SUBSTRUCTURE
     1 1B0         1 TEMP              0 ****  ****    0 ROOT
