@<TRIPOS>MOLECULE
1B1
   46    49     1     0     0
SMALL
bcc


@<TRIPOS>ATOM
      1 C1           0.1810     0.0950     0.2400 c3         1 1B1       0.354700
      2 N1           1.1190    -0.9140    -0.4110 n2         1 1B1      -0.460900
      3 C2           2.1560    -0.9900     0.3850 ce         1 1B1       0.288900
      4 C4          -1.1790    -0.5170     0.5780 cx         1 1B1      -0.118700
      5 C5          -0.0530     1.2580    -0.7190 ca         1 1B1      -0.104300
      6 C6          -0.1040     2.5730    -0.2490 ca         1 1B1      -0.095000
      7 C7          -0.3610     3.6290    -1.1380 cp         1 1B1      -0.018000
      8 C8          -0.5670     3.3520    -2.4970 ca         1 1B1      -0.093000
      9 C9          -0.5310     2.0370    -2.9560 ca         1 1B1      -0.124000
     10 C10         -0.2830     0.9880    -2.0740 ca         1 1B1      -0.107000
     11 N3           3.3430    -1.8070     0.1710 nz         1 1B1      -0.766600
     12 C13         -1.8170    -1.5680    -0.2890 cx         1 1B1      -0.114400
     13 C12         -1.3360    -1.9250     1.0850 cx         1 1B1      -0.114400
     14 C14         -0.4240     5.0000    -0.6480 cp         1 1B1      -0.177300
     15 C15          0.4650     5.4710     0.3290 ca         1 1B1      -0.069000
     16 C16          0.3640     6.8000     0.7650 ca         1 1B1      -0.070300
     17 C17         -0.6470     7.6150     0.1920 ca         1 1B1       0.429200
     18 C19         -1.3940     5.8980    -1.1500 ca         1 1B1       0.416200
     19 C21          1.2310     7.3200     1.7360 cg         1 1B1      -0.153000
     20 N17          0.8620     0.5390     1.5200 n2         1 1B1      -0.464900
     21 N5          -1.5060     7.1750    -0.7420 nb         1 1B1      -0.652000
     22 C18          2.0010    -0.0820     1.6130 ce         1 1B1       0.324000
     23 C22          1.9660     7.7780     2.5660 c1         1 1B1      -0.079100
     24 C23          2.8350     8.3310     3.5510 c3         1 1B1      -0.029000
     25 C11          3.0320    -0.0130     2.6660 c3         1 1B1      -0.151400
     26 H4          -1.8320     0.2730     1.0100 hc         1 1B1       0.128700
     27 H31N         3.8010    -1.9510     1.0800 hn         1 1B1       0.477800
     28 H32N         3.0970    -2.7170    -0.2430 hn         1 1B1       0.477800
     29 H121        -0.4540    -2.5790     1.1940 hc         1 1B1       0.083700
     30 H122        -2.0750    -2.1090     1.8870 hc         1 1B1       0.083700
     31 H131        -1.2840    -1.9580    -1.1730 hc         1 1B1       0.083700
     32 H132        -2.9060    -1.4900    -0.4760 hc         1 1B1       0.083700
     33 H6           0.0290     2.8110     0.8180 ha         1 1B1       0.157000
     34 H10         -0.2910    -0.0460    -2.4520 ha         1 1B1       0.143000
     35 H8          -0.7590     4.1770    -3.2020 ha         1 1B1       0.155000
     36 H9          -0.7080     1.8230    -4.0220 ha         1 1B1       0.151000
     37 H111         2.7480     0.7260     3.4610 hc         1 1B1       0.080700
     38 H112         3.1480    -1.0130     3.1550 hc         1 1B1       0.080700
     39 H113         4.0090     0.3090     2.2280 hc         1 1B1       0.080700
     40 H15          1.2390     4.8100     0.7450 ha         1 1B1       0.139000
     41 H19         -2.1250     5.5720    -1.9130 h4         1 1B1       0.030100
     42 H17         -0.7640     8.6690     0.5040 h4         1 1B1       0.041100
     43 H231         2.9080     9.4430     3.4270 hc         1 1B1       0.064367
     44 H232         2.4480     8.1150     4.5820 hc         1 1B1       0.064367
     45 H233         3.8640     7.8950     3.4590 hc         1 1B1       0.064367
     46 H33          3.9860    -1.3130    -0.4640 hn         1 1B1       0.477800
@<TRIPOS>BOND
     1     1     2 1   
     2     1     4 1   
     3     1     5 1   
     4     1    20 1   
     5     2     3 2   
     6     3    11 1   
     7     3    22 1   
     8     4    12 1   
     9     4    13 1   
    10     4    26 1   
    11     5     6 ar  
    12     5    10 ar  
    13     6     7 ar  
    14     6    33 1   
    15     7     8 ar  
    16     7    14 1   
    17     8     9 ar  
    18     8    35 1   
    19     9    10 ar  
    20     9    36 1   
    21    10    34 1   
    22    11    27 1   
    23    11    28 1   
    24    11    46 1   
    25    12    13 1   
    26    12    31 1   
    27    12    32 1   
    28    13    29 1   
    29    13    30 1   
    30    14    15 ar  
    31    14    18 ar  
    32    15    16 ar  
    33    15    40 1   
    34    16    17 ar  
    35    16    19 1   
    36    17    21 ar  
    37    17    42 1   
    38    18    21 ar  
    39    18    41 1   
    40    19    23 3   
    41    20    22 2   
    42    22    25 1   
    43    23    24 1   
    44    24    43 1   
    45    24    44 1   
    46    24    45 1   
    47    25    37 1   
    48    25    38 1   
    49    25    39 1   
@<TRIPOS>SUBSTRUCTURE
     1 1B1         1 TEMP              0 ****  ****    0 ROOT
