@<TRIPOS>MOLECULE
1B1
   46    49     1     0     0
SMALL
bcc


@<TRIPOS>ATOM
      1 C1           0.0000     0.0000     0.0000 c3         1 1B1       0.312700
      2 N1           1.4680     0.0000     0.0000 n2         1 1B1      -0.342900
      3 C2           1.8510     0.0000     1.2420 ce         1 1B1       0.006900
      4 C4          -0.5270    -1.2550    -0.7000 cx         1 1B1      -0.112700
      5 C5          -0.5190     1.2350    -0.6900 ca         1 1B1      -0.067300
      6 C6           0.2090     1.8100    -1.7120 ca         1 1B1      -0.121000
      7 C7          -0.2720     2.9510    -2.3500 cp         1 1B1      -0.021000
      8 C8          -1.4870     3.5060    -1.9520 ca         1 1B1      -0.070000
      9 C9          -2.2070     2.9230    -0.9290 ca         1 1B1      -0.092000
     10 C10         -1.7270     1.7870    -0.3030 ca         1 1B1      -0.126000
     11 N3           3.1620     0.0010     1.6700 nz         1 1B1       0.211400
     12 C13          0.5010    -2.1900    -1.3400 cx         1 1B1      -0.047400
     13 C12         -0.2170    -2.6060    -0.0540 cx         1 1B1      -0.047400
     14 C14          0.5060     3.5750    -3.4490 cp         1 1B1      -0.150300
     15 C15          0.0310     4.7170    -4.0930 ca         1 1B1      -0.061000
     16 C16          0.8030     5.2650    -5.1210 ca         1 1B1      -0.024300
     17 C17          2.0100     4.6510    -5.4620 ca         1 1B1       0.417200
     18 C19          1.7250     3.0300    -3.8490 ca         1 1B1       0.382200
     19 C21          0.3630     6.4370    -5.8160 cg         1 1B1      -0.182000
     20 N17         -0.4080    -0.0000     1.4110 n2         1 1B1      -0.389900
     21 N5           2.4210     3.5720    -4.8280 nb         1 1B1      -0.576000
     22 C18          0.6660     0.0000     2.1230 ce         1 1B1       0.296000
     23 C22          0.0200     7.4000    -6.3930 c1         1 1B1      -0.069100
     24 C23         -0.6590     8.5540    -6.7710 c3         1 1B1       0.095000
     25 H4          -1.5660    -1.2080    -1.0020 hc         1 1B1       0.104700
     26 H31N         3.7390    -0.1480     0.8660 hn         1 1B1       0.229800
     27 H32N         3.3660     0.8760     2.1110 hn         1 1B1       0.229800
     28 H121         0.4320    -2.7150     0.8060 hc         1 1B1       0.049200
     29 H122        -0.9920    -3.3600     0.0200 hc         1 1B1       0.049200
     30 H131         0.2910    -2.2470    -2.4010 hc         1 1B1       0.049200
     31 H132         1.4760    -2.0010    -0.9060 hc         1 1B1       0.049200
     32 H6           1.1610     1.5970    -2.1830 ha         1 1B1       0.141000
     33 H10         -2.6980     1.3170    -0.1990 ha         1 1B1       0.146000
     34 H8          -1.9030     4.2830    -2.5810 ha         1 1B1       0.123000
     35 H9          -3.1170     3.2470    -0.4380 ha         1 1B1       0.123000
     36 H111         0.6040     1.0590     3.8350 hc         1 1B1       0.025367
     37 H112         1.7270     0.0550     3.9900 hc         1 1B1       0.025367
     38 H113        -0.0010    -0.3630     4.3640 hc         1 1B1       0.025367
     39 H15         -0.8120     5.3460    -3.8310 ha         1 1B1       0.129000
     40 H19          1.9800     2.0010    -3.6230 h4         1 1B1      -0.017900
     41 H17          2.6860     5.0430    -6.2130 h4         1 1B1      -0.004900
     42 H231        -0.6760     8.3280    -7.8310 hc         1 1B1       0.029700
     43 H232        -0.0910     9.4740    -6.7110 hc         1 1B1       0.029700
     44 H233        -1.6080     8.5700    -6.2490 hc         1 1B1       0.029700
     45 C11          0.7070     0.0010     3.6300 c3         1 1B1      -0.016400
     46 H33          3.1050    -0.8340     2.2190 hn         1 1B1       0.229800
@<TRIPOS>BOND
     1     1     2 1   
     2     1     4 1   
     3     1     5 1   
     4     1    20 1   
     5     2     3 2   
     6     3    11 1   
     7     3    22 1   
     8     4    12 1   
     9     4    13 1   
    10     4    25 1   
    11     5     6 ar  
    12     5    10 ar  
    13     6     7 ar  
    14     6    32 1   
    15     7     8 ar  
    16     7    14 1   
    17     8     9 ar  
    18     8    34 1   
    19     9    10 ar  
    20     9    35 1   
    21    10    33 1   
    22    11    26 1   
    23    11    27 1   
    24    11    46 1   
    25    12    13 1   
    26    12    30 1   
    27    12    31 1   
    28    13    28 1   
    29    13    29 1   
    30    14    15 ar  
    31    14    18 ar  
    32    15    16 ar  
    33    15    39 1   
    34    16    17 ar  
    35    16    19 1   
    36    17    21 ar  
    37    17    41 1   
    38    18    21 ar  
    39    18    40 1   
    40    19    23 3   
    41    20    22 2   
    42    22    45 1   
    43    23    24 1   
    44    24    42 1   
    45    24    43 1   
    46    24    44 1   
    47    36    45 1   
    48    37    45 1   
    49    38    45 1   
@<TRIPOS>SUBSTRUCTURE
     1 1B1         1 TEMP              0 ****  ****    0 ROOT
