@<TRIPOS>MOLECULE
molecule
   45    47     1     0     0
SMALL
bcc


@<TRIPOS>ATOM
      1 O8           0.0000     0.0000     0.0000 o          1 1B2      -0.533100
      2 C4           1.2130     0.0000     0.0000 c          1 1B2       0.679100
      3 C3           1.9670     0.0000     1.3050 c3         1 1B2       0.027500
      4 C2           2.4390    -1.4210     1.6210 c3         1 1B2       0.126100
      5 C1           3.0950    -1.4440     3.0020 c3         1 1B2      -0.146100
      6 O6           1.3190    -2.3080     1.6090 oh         1 1B2      -0.605800
      7 N7           1.0850     0.4730     2.3800 nz         1 1B2      -0.793600
      8 N5           1.8870    -0.0040    -1.1680 ns         1 1B2      -0.630300
      9 S9           1.0590    -0.0120    -2.6020 sy         1 1B2       1.393900
     10 O10          2.0380     0.0190    -3.6310 o          1 1B2      -0.584300
     11 O11          0.0770    -1.0320    -2.4930 o          1 1B2      -0.584300
     12 C12          0.1820     1.5130    -2.7040 ca         1 1B2      -0.322500
     13 C13          0.7790     2.6150    -3.2900 ca         1 1B2      -0.044000
     14 C14          0.0960     3.8150    -3.3740 ca         1 1B2      -0.139000
     15 C15         -1.1850     3.9200    -2.8740 ca         1 1B2      -0.067000
     16 C16         -1.7930     2.8130    -2.2830 cp         1 1B2      -0.033000
     17 C17         -1.1020     1.6050    -2.2050 ca         1 1B2      -0.026000
     18 C18         -3.1700     2.9190    -1.7420 cp         1 1B2      -0.097000
     19 C19         -3.8420     4.1190    -1.8360 ca         1 1B2      -0.032000
     20 C20         -5.1520     4.2170    -1.3290 ca         1 1B2      -0.205000
     21 C26         -6.0930     5.2300    -1.2550 cc         1 1B2      -0.095100
     22 N25         -7.1830     4.7350    -0.6530 na         1 1B2       0.035800
     23 N24         -6.9780     3.3910    -0.3230 nc         1 1B2      -0.261400
     24 C21         -5.7670     3.0320    -0.7100 ca         1 1B2      -0.033000
     25 C22         -5.0220     1.8340    -0.6460 ca         1 1B2      -0.095000
     26 C23         -3.7670     1.7910    -1.1490 ca         1 1B2      -0.103000
     27 H1           2.8250     0.6570     1.2260 hx         1 1B2       0.124700
     28 H2           3.1580    -1.7370     0.8740 h1         1 1B2       0.089700
     29 H3           3.7390    -2.3120     3.0820 hc         1 1B2       0.065367
     30 H4           3.6830    -0.5440     3.1380 hc         1 1B2       0.065367
     31 H5           2.3280    -1.4930     3.7660 hc         1 1B2       0.065367
     32 H6           1.6150    -3.1860     1.4330 ho         1 1B2       0.456000
     33 H7           0.3840    -0.2170     2.5650 hn         1 1B2       0.469133
     34 H8           0.6470     1.3280     2.1000 hn         1 1B2       0.469133
     35 H10          2.8880     0.0180    -1.1680 hn         1 1B2       0.351500
     36 H11          1.7850     2.5380    -3.6840 ha         1 1B2       0.150000
     37 H12          0.5690     4.6750    -3.8330 ha         1 1B2       0.148000
     38 H13         -1.7180     4.8610    -2.9390 ha         1 1B2       0.147000
     39 H14         -1.5690     0.7410    -1.7470 ha         1 1B2       0.166000
     40 H15         -3.4280     4.9260    -2.4280 ha         1 1B2       0.132000
     41 H16         -5.9690     6.2430    -1.6190 h4         1 1B2       0.182000
     42 H17         -8.0200     5.2500    -0.4680 hn         1 1B2       0.340700
     43 H18         -5.4560     0.9490    -0.1950 ha         1 1B2       0.146000
     44 H19         -3.2070     0.8650    -1.0930 ha         1 1B2       0.134000
     45 H73          1.6270     0.6470     3.2040 hn         1 1B2       0.469133
@<TRIPOS>BOND
     1    22    21 1
     2    22    23 1
     3    21    20 2
     4    23    24 2
     5    20    24 ar
     6    20    19 ar
     7    24    25 ar
     8    19    18 ar
     9    15    14 ar
    10    15    16 ar
    11    25    26 ar
    12    18    26 ar
    13    18    16 1
    14    14    13 ar
    15    16    17 ar
    16    13    12 ar
    17    17    12 ar
    18    12     9 1
    19     5     4 1
    20     1     2 2
    21     4     6 1
    22     4     3 1
    23     9    10 2
    24     9    11 2
    25     9     8 1
    26     2     8 1
    27     2     3 1
    28     3     7 1
    29     3    27 1
    30     4    28 1
    31     5    29 1
    32     5    30 1
    33     5    31 1
    34     6    32 1
    35     7    33 1
    36     7    34 1
    37     8    35 1
    38    13    36 1
    39    14    37 1
    40    15    38 1
    41    17    39 1
    42    19    40 1
    43    21    41 1
    44    22    42 1
    45    25    43 1
    46    26    44 1
    47    45     7 1
@<TRIPOS>SUBSTRUCTURE
     1 1B2         1 TEMP              0 ****  ****    0 ROOT
