@<TRIPOS>MOLECULE
molecule
   46    48     1     0     0
SMALL
bcc


@<TRIPOS>ATOM
      1 O8           0.0000     0.0000     0.0000 o          1 1B2      -0.590100
      2 C4           1.2370     0.0000     0.0000 c          1 1B2       0.578100
      3 C3           2.0180     0.0000     1.3040 c3         1 1B2       0.000500
      4 C2           1.9430    -1.4110     1.9030 c3         1 1B2       0.139100
      5 C1           2.8170    -2.4010     1.1460 c3         1 1B2      -0.149100
      6 O6           2.3010    -1.3780     3.2910 oh         1 1B2      -0.617800
      7 N7           1.4740     0.9530     2.2750 nz         1 1B2      -0.830600
      8 N5           2.0030    -0.0900    -1.0940 ny         1 1B2      -0.456700
      9 S9           1.4390    -0.1240    -2.5800 sy         1 1B2       1.533200
     10 O10          2.4870    -0.2170    -3.5330 o          1 1B2      -0.508300
     11 O11          0.6780     1.0390    -2.8980 o          1 1B2      -0.508300
     12 C12          0.4540    -1.4260    -2.8840 ca         1 1B2      -0.625500
     13 C13          0.8020    -2.7030    -2.4310 ca         1 1B2       0.030000
     14 C14          0.0340    -3.8330    -2.7240 ca         1 1B2      -0.149000
     15 C15         -1.1760    -3.6560    -3.4300 ca         1 1B2       0.047000
     16 C16         -1.5410    -2.4070    -3.9220 cp         1 1B2      -0.013000
     17 C17         -0.7160    -1.2890    -3.6470 ca         1 1B2       0.020000
     18 C18         -2.7920    -2.2850    -4.7370 cp         1 1B2      -0.121000
     19 C19         -3.2100    -3.3930    -5.5030 ca         1 1B2      -0.021000
     20 C20         -4.3890    -3.3060    -6.2750 ca         1 1B2      -0.158000
     21 C26         -4.9940    -4.3170    -7.1280 cc         1 1B2      -0.127100
     22 N25         -6.0830    -3.6600    -7.5950 na         1 1B2       0.072800
     23 N24         -6.1830    -2.3270    -7.0990 nc         1 1B2      -0.245400
     24 C21         -5.1360    -2.0550    -6.2950 ca         1 1B2      -0.068000
     25 C22         -4.7100    -0.9560    -5.5220 ca         1 1B2      -0.056000
     26 C23         -3.5330    -1.0970    -4.7750 ca         1 1B2      -0.129000
     27 H1           3.0530     0.2480     1.1000 hx         1 1B2       0.118700
     28 H2           0.9160    -1.7500     1.8310 h1         1 1B2       0.110700
     29 H3           3.2150    -3.1340     1.8370 hc         1 1B2       0.076700
     30 H4           2.2240    -2.9010     0.3900 hc         1 1B2       0.076700
     31 H5           3.6350    -1.8710     0.6720 hc         1 1B2       0.076700
     32 H6           1.9070    -2.1110     3.7340 ho         1 1B2       0.446000
     33 H7           0.6020     0.6100     2.6260 hn         1 1B2       0.476467
     34 H8           1.3300     1.8370     1.8290 hn         1 1B2       0.476467
     35 H10          2.6250     0.6930    -1.0570 hn         1 1B2       0.463800
     36 H11          1.6990    -2.8210    -1.8350 ha         1 1B2       0.177000
     37 H12          0.3200    -4.8090    -2.3510 ha         1 1B2       0.186000
     38 H13         -1.8030    -4.5150    -3.6370 ha         1 1B2       0.186000
     39 H14         -0.9910    -0.3140    -4.0320 ha         1 1B2       0.178000
     40 H15         -2.6110    -4.2350    -5.8290 ha         1 1B2       0.129000
     41 H16         -4.8980    -5.3890    -7.0100 h4         1 1B2       0.194000
     42 H17         -6.7480    -4.0680    -8.2230 hn         1 1B2       0.341700
     43 H18         -5.2820    -0.0370    -5.5460 ha         1 1B2       0.165000
     44 H19         -3.4930    -0.2070    -4.1590 ha         1 1B2       0.132000
     45 H73          2.1160     1.0570     3.0350 hn         1 1B2       0.476467
     46 H52          2.5280    -0.9360    -0.9910 hn         1 1B2       0.463800
@<TRIPOS>BOND
     1    22    21 1   
     2    22    23 1   
     3    21    20 2   
     4    23    24 2   
     5    20    24 ar  
     6    20    19 ar  
     7    24    25 ar  
     8    19    18 ar  
     9    15    14 ar  
    10    15    16 ar  
    11    25    26 ar  
    12    18    26 ar  
    13    18    16 1   
    14    14    13 ar  
    15    16    17 ar  
    16    13    12 ar  
    17    17    12 ar  
    18    12     9 1   
    19     5     4 1   
    20     1     2 2   
    21     4     6 1   
    22     4     3 1   
    23     9    10 2   
    24     9    11 2   
    25     9     8 1   
    26     2     8 1   
    27     2     3 1   
    28     3     7 1   
    29     3    27 1   
    30     4    28 1   
    31     5    29 1   
    32     5    30 1   
    33     5    31 1   
    34     6    32 1   
    35     7    33 1   
    36     7    34 1   
    37     8    35 1   
    38    13    36 1   
    39    14    37 1   
    40    15    38 1   
    41    17    39 1   
    42    19    40 1   
    43    21    41 1   
    44    22    42 1   
    45    25    43 1   
    46    26    44 1   
    47    45     7 1   
    48    46     8 1   
@<TRIPOS>SUBSTRUCTURE
     1 1B2         1 TEMP              0 ****  ****    0 ROOT
