@<TRIPOS>MOLECULE
1B2
   45    47     1     0     0
SMALL
bcc


@<TRIPOS>ATOM
      1 O8           0.0000     0.0000     0.0000 o          1 1B2      -0.582100
      2 C4           1.2130     0.0000     0.0000 c          1 1B2       0.647100
      3 C3           1.9670     0.0000     1.3050 c3         1 1B2      -0.170500
      4 C2           2.4390    -1.4210     1.6210 c3         1 1B2       0.185100
      5 C1           3.0950    -1.4440     3.0020 c3         1 1B2      -0.049100
      6 O6           1.3190    -2.3080     1.6090 oh         1 1B2      -0.589800
      7 N7           1.0850     0.4730     2.3800 nz         1 1B2       0.094400
      8 N5           1.8870    -0.0040    -1.1680 ns         1 1B2      -0.279300
      9 S9           1.0590    -0.0120    -2.6020 sy         1 1B2       1.038900
     10 O10          2.0380     0.0190    -3.6310 o          1 1B2      -0.537300
     11 O11          0.0770    -1.0320    -2.4930 o          1 1B2      -0.537300
     12 C12          0.1820     1.5130    -2.7040 ca         1 1B2      -0.172500
     13 C13          0.7790     2.6150    -3.2900 ca         1 1B2      -0.015000
     14 C14          0.0960     3.8150    -3.3740 ca         1 1B2      -0.116000
     15 C15         -1.1850     3.9200    -2.8740 ca         1 1B2      -0.047000
     16 C16         -1.7930     2.8130    -2.2830 cp         1 1B2      -0.031000
     17 C17         -1.1020     1.6050    -2.2050 ca         1 1B2      -0.005000
     18 C18         -3.1700     2.9190    -1.7420 cp         1 1B2      -0.100000
     19 C19         -3.8420     4.1190    -1.8360 ca         1 1B2      -0.004000
     20 C20         -5.1520     4.2170    -1.3290 ca         1 1B2      -0.206000
     21 C26         -6.0930     5.2300    -1.2550 cc         1 1B2      -0.265100
     22 N25         -7.1830     4.7350    -0.6530 na         1 1B2       0.573800
     23 N24         -6.9780     3.3910    -0.3230 nc         1 1B2      -0.433400
     24 C21         -5.7670     3.0320    -0.7100 ca         1 1B2       0.001000
     25 C22         -5.0220     1.8340    -0.6460 ca         1 1B2      -0.068000
     26 C23         -3.7670     1.7910    -1.1490 ca         1 1B2      -0.086000
     27 H1           2.8250     0.6570     1.2260 hx         1 1B2       0.095700
     28 H2           3.1580    -1.7370     0.8740 h1         1 1B2       0.046700
     29 H3           3.7390    -2.3120     3.0820 hc         1 1B2       0.029700
     30 H4           3.6830    -0.5440     3.1380 hc         1 1B2       0.029700
     31 H5           2.3280    -1.4930     3.7660 hc         1 1B2       0.029700
     32 H6           1.6150    -3.1860     1.4330 ho         1 1B2       0.446000
     33 H7           0.3840    -0.2170     2.5650 hn         1 1B2       0.234133
     34 H8           0.6470     1.3280     2.1000 hn         1 1B2       0.234133
     35 H10          2.8880     0.0180    -1.1680 hn         1 1B2       0.235500
     36 H11          1.7850     2.5380    -3.6840 ha         1 1B2       0.122000
     37 H12          0.5690     4.6750    -3.8330 ha         1 1B2       0.117000
     38 H13         -1.7180     4.8610    -2.9390 ha         1 1B2       0.120000
     39 H14         -1.5690     0.7410    -1.7470 ha         1 1B2       0.147000
     40 H15         -3.4280     4.9260    -2.4280 ha         1 1B2       0.107000
     41 H16         -5.9690     6.2430    -1.6190 h4         1 1B2       0.152000
     42 H17         -8.0200     5.2500    -0.4680 hn         1 1B2       0.146700
     43 H18         -5.4560     0.9490    -0.1950 ha         1 1B2       0.115000
     44 H19         -3.2070     0.8650    -1.0930 ha         1 1B2       0.111000
     45 H73          1.6270     0.6470     3.2040 hn         1 1B2       0.234133
@<TRIPOS>BOND
     1     1     2 2   
     2     2     3 1   
     3     2     8 1   
     4     3     4 1   
     5     3     7 1   
     6     3    27 1   
     7     4     5 1   
     8     4     6 1   
     9     4    28 1   
    10     5    29 1   
    11     5    30 1   
    12     5    31 1   
    13     6    32 1   
    14     7    33 1   
    15     7    34 1   
    16     7    45 1   
    17     8     9 1   
    18     8    35 1   
    19     9    10 2   
    20     9    11 2   
    21     9    12 1   
    22    12    13 ar  
    23    12    17 ar  
    24    13    14 ar  
    25    13    36 1   
    26    14    15 ar  
    27    14    37 1   
    28    15    16 ar  
    29    15    38 1   
    30    16    17 ar  
    31    16    18 1   
    32    17    39 1   
    33    18    19 ar  
    34    18    26 ar  
    35    19    20 ar  
    36    19    40 1   
    37    20    21 2   
    38    20    24 ar  
    39    21    22 1   
    40    21    41 1   
    41    22    23 1   
    42    22    42 1   
    43    23    24 2   
    44    24    25 ar  
    45    25    26 ar  
    46    25    43 1   
    47    26    44 1   
@<TRIPOS>SUBSTRUCTURE
     1 1B2         1 TEMP              0 ****  ****    0 ROOT
