@<TRIPOS>MOLECULE
1B3
   49    51     1     0     0
SMALL
bcc


@<TRIPOS>ATOM
      1 Cl2          1.9960    -1.9320    -2.0560 cl         1 1B3      -0.062000
      2 C25          2.9970    -0.8610    -1.1630 ca         1 1B3       0.798000
      3 N24          3.4010    -1.2720     0.0580 nb         1 1B3      -0.728000
      4 N26          3.2890     0.3330    -1.7830 nb         1 1B3      -0.760000
      5 C27          4.0870     1.2030    -1.1060 ca         1 1B3       0.738200
      6 N28          4.4320     2.3810    -1.7150 nv         1 1B3      -0.945500
      7 C21          4.5990     0.8710     0.2280 ca         1 1B3      -0.306600
      8 C22          4.2040    -0.3990     0.7530 ca         1 1B3       0.467600
      9 C23          4.6660    -0.7740     2.0570 ca         1 1B3      -0.147300
     10 C20          5.4410     1.7060     0.9930 ca         1 1B3      -0.052000
     11 C19          5.8840     1.3170     2.2360 ca         1 1B3      -0.167000
     12 C18          5.4880     0.0670     2.7760 cp         1 1B3      -0.069000
     13 C16          5.9520    -0.3360     4.1040 cp         1 1B3      -0.024000
     14 C17          7.2880    -0.2040     4.4630 ca         1 1B3       0.026000
     15 C15          5.0430    -0.8890     5.0290 ca         1 1B3       0.046000
     16 C14          5.4860    -1.3030     6.2900 ca         1 1B3      -0.142000
     17 C13          6.8190    -1.1810     6.6360 ca         1 1B3       0.024000
     18 C12          7.7710    -0.6330     5.7300 ca         1 1B3      -0.592500
     19 S9           9.2740    -0.5830     6.0940 sy         1 1B3       1.748800
     20 O10          9.7170    -1.2380     7.2070 o          1 1B3      -0.628800
     21 O11         10.1810    -0.1700     5.1420 o          1 1B3      -0.628800
     22 N5          10.8500     0.9590     8.8890 nv         1 1B3      -0.411100
     23 C4          10.6510     1.4590     7.6760 c2         1 1B3       0.631600
     24 O8           9.6430     1.0690     6.9520 os         1 1B3      -0.551300
     25 C3          11.5650     2.5240     7.0460 c3         1 1B3       0.001200
     26 N7          11.8460     2.1810     5.6150 nz         1 1B3      -0.833600
     27 C2          10.8540     3.9260     7.1680 c3         1 1B3       0.154100
     28 C1          10.9010     4.4100     8.5980 c3         1 1B3      -0.160100
     29 O6          11.4980     4.7850     6.2550 oh         1 1B3      -0.610800
     30 H1           4.8510     3.1000    -1.1820 hn         1 1B3       0.451300
     31 H2           4.0420     2.6150    -2.6000 hn         1 1B3       0.451300
     32 H3           4.3560    -1.7540     2.4600 ha         1 1B3       0.162000
     33 H4           5.7590     2.6870     0.6050 ha         1 1B3       0.138000
     34 H5           6.5300     1.9800     2.8280 ha         1 1B3       0.121000
     35 H6           8.0010     0.2240     3.7330 ha         1 1B3       0.167000
     36 H7           3.9770    -0.9970     4.7500 ha         1 1B3       0.194000
     37 H8           4.7660    -1.7360     7.0090 ha         1 1B3       0.191000
     38 H9           7.1620    -1.5310     7.6280 ha         1 1B3       0.168000
     39 H10         11.5890     1.2780     9.4830 hn         1 1B3       0.347700
     40 H11         12.5620     2.5770     7.5810 hx         1 1B3       0.140700
     41 H12         10.9880     1.8470     5.1450 hn         1 1B3       0.489800
     42 H13         12.1770     3.0390     5.1380 hn         1 1B3       0.489800
     43 H15          9.7910     3.8120     6.8020 h1         1 1B3       0.109700
     44 H16         10.3380     3.7250     9.2740 hc         1 1B3       0.085367
     45 H17         11.9530     4.5100     8.9630 hc         1 1B3       0.085367
     46 H18         10.4170     5.4210     8.6570 hc         1 1B3       0.085367
     47 H19         11.9390     5.5060     6.7330 ho         1 1B3       0.468000
     48 H73         12.5590     1.4470     5.5450 hn         1 1B3       0.489800
     49 H52         10.2540     0.2260     9.2410 hn         1 1B3       0.347700
@<TRIPOS>BOND
     1     1     2 1   
     2     2     3 ar  
     3     2     4 ar  
     4     3     8 ar  
     5     4     5 ar  
     6     5     6 1   
     7     5     7 ar  
     8     6    30 1   
     9     6    31 1   
    10     7     8 ar  
    11     7    10 ar  
    12     8     9 ar  
    13     9    12 ar  
    14     9    32 1   
    15    10    11 ar  
    16    10    33 1   
    17    11    12 ar  
    18    11    34 1   
    19    12    13 1   
    20    13    14 ar  
    21    13    15 ar  
    22    14    18 ar  
    23    14    35 1   
    24    15    16 ar  
    25    15    36 1   
    26    16    17 ar  
    27    16    37 1   
    28    17    18 ar  
    29    17    38 1   
    30    18    19 1   
    31    19    20 2   
    32    19    21 2   
    33    19    24 1   
    34    22    23 2   
    35    22    39 1   
    36    22    49 1   
    37    23    24 1   
    38    23    25 1   
    39    25    26 1   
    40    25    27 1   
    41    25    40 1   
    42    26    41 1   
    43    26    42 1   
    44    26    48 1   
    45    27    28 1   
    46    27    29 1   
    47    27    43 1   
    48    28    44 1   
    49    28    45 1   
    50    28    46 1   
    51    29    47 1   
@<TRIPOS>SUBSTRUCTURE
     1 1B3         1 TEMP              0 ****  ****    0 ROOT
