@<TRIPOS>MOLECULE
1B3
   48    50     1     0     0
SMALL
bcc


@<TRIPOS>ATOM
      1 Cl2          0.0000     0.0000     0.0000 cl         1 1B3      -0.030000
      2 C25          1.7360     0.0000     0.0000 ca         1 1B3       0.623000
      3 N24          2.3630     0.0000     1.1530 nb         1 1B3      -0.605000
      4 N26          2.3700    -0.0070    -1.1640 nb         1 1B3      -0.617000
      5 C27          3.6930    -0.0080    -1.2320 ca         1 1B3       0.570200
      6 N28          4.3380    -0.0140    -2.4500 nv         1 1B3      -0.650500
      7 C21          4.4280    -0.0020    -0.0210 ca         1 1B3      -0.288600
      8 C22          3.7050    -0.0010     1.1980 ca         1 1B3       0.412600
      9 C23          4.4030    -0.0010     2.4110 ca         1 1B3      -0.141300
     10 C20          5.8270    -0.0040    -0.0040 ca         1 1B3      -0.043000
     11 C19          6.4900     0.0030     1.1840 ca         1 1B3      -0.120000
     12 C18          5.7870    -0.0020     2.3980 cp         1 1B3      -0.026000
     13 C16          6.5340    -0.0010     3.6800 cp         1 1B3      -0.059000
     14 C17          7.9280    -0.0020     3.6770 ca         1 1B3       0.006000
     15 C15          5.8450     0.0070     4.8910 ca         1 1B3      -0.029000
     16 C14          6.5440     0.0080     6.0810 ca         1 1B3      -0.118000
     17 C13          7.9280     0.0010     6.0720 ca         1 1B3      -0.002000
     18 C12          8.6180    -0.0010     4.8730 ca         1 1B3      -0.177500
     19 S9          10.3800    -0.0100     4.8720 sy         1 1B3       1.039900
     20 O10         10.7830     0.5330     3.6220 o          1 1B3      -0.535800
     21 O11         10.7840     0.5310     6.1220 o          1 1B3      -0.535800
     22 N5          10.8620    -1.5940     4.8700 ns         1 1B3      -0.279300
     23 C4          10.5850    -2.3810     3.8110 c          1 1B3       0.649100
     24 O8           9.9830    -1.9300     2.8610 o          1 1B3      -0.586100
     25 C3          11.0240    -3.8230     3.8100 c3         1 1B3      -0.170500
     26 N7          10.2290    -4.5750     2.8300 nz         1 1B3       0.094400
     27 C2          12.5060    -3.9050     3.4360 c3         1 1B3       0.185100
     28 C1          12.9200    -5.3730     3.3120 c3         1 1B3      -0.048100
     29 O6          12.7180    -3.2440     2.1880 oh         1 1B3      -0.590800
     30 H1           4.5540    -0.8830    -2.8980 hn         1 1B3       0.287300
     31 H2           4.5520     0.8500    -2.9070 hn         1 1B3       0.287300
     32 H3           3.8650    -0.0040     3.3520 ha         1 1B3       0.130000
     33 H4           6.3810     0.0000    -0.9350 ha         1 1B3       0.116000
     34 H5           7.5730     0.0020     1.1930 ha         1 1B3       0.116000
     35 H6           8.4690    -0.0040     2.7380 ha         1 1B3       0.146000
     36 H7           4.7620     0.0130     4.8990 ha         1 1B3       0.125000
     37 H8           6.0090     0.0110     7.0230 ha         1 1B3       0.122000
     38 H9           8.4730     0.0020     7.0080 ha         1 1B3       0.124000
     39 H10         11.3340    -1.9740     5.6660 hn         1 1B3       0.236500
     40 H11         10.8770    -4.2460     4.7960 hx         1 1B3       0.096700
     41 H12         10.4860    -4.2950     1.9050 hn         1 1B3       0.234133
     42 H13         10.4010    -5.5550     2.9420 hn         1 1B3       0.234133
     43 H15         13.0990    -3.4260     4.2050 h1         1 1B3       0.047700
     44 H16         12.6180    -5.7520     2.3430 hc         1 1B3       0.029700
     45 H17         12.4390    -5.9510     4.0920 hc         1 1B3       0.029700
     46 H18         13.9950    -5.4540     3.4130 hc         1 1B3       0.029700
     47 H19         13.6170    -2.9640     2.1290 ho         1 1B3       0.446000
     48 H73          9.2570    -4.3850     2.9740 hn         1 1B3       0.234133
@<TRIPOS>BOND
     1     1     2 1   
     2     2     3 ar  
     3     2     4 ar  
     4     3     8 ar  
     5     4     5 ar  
     6     5     6 1   
     7     5     7 ar  
     8     6    30 1   
     9     6    31 1   
    10     7     8 ar  
    11     7    10 ar  
    12     8     9 ar  
    13     9    12 ar  
    14     9    32 1   
    15    10    11 ar  
    16    10    33 1   
    17    11    12 ar  
    18    11    34 1   
    19    12    13 1   
    20    13    14 ar  
    21    13    15 ar  
    22    14    18 ar  
    23    14    35 1   
    24    15    16 ar  
    25    15    36 1   
    26    16    17 ar  
    27    16    37 1   
    28    17    18 ar  
    29    17    38 1   
    30    18    19 1   
    31    19    20 2   
    32    19    21 2   
    33    19    22 1   
    34    22    23 1   
    35    22    39 1   
    36    23    24 2   
    37    23    25 1   
    38    25    26 1   
    39    25    27 1   
    40    25    40 1   
    41    26    41 1   
    42    26    42 1   
    43    26    48 1   
    44    27    28 1   
    45    27    29 1   
    46    27    43 1   
    47    28    44 1   
    48    28    45 1   
    49    28    46 1   
    50    29    47 1   
@<TRIPOS>SUBSTRUCTURE
     1 1B3         1 TEMP              0 ****  ****    0 ROOT
