@<TRIPOS>MOLECULE
molecule
   48    50     1     0     0
SMALL
bcc


@<TRIPOS>ATOM
      1 Cl2          0.0000     0.0000     0.0000 cl         1 1B3      -0.091000
      2 C25          1.7360     0.0000     0.0000 ca         1 1B3       0.799000
      3 N24          2.3630     0.0000     1.1530 nb         1 1B3      -0.727000
      4 N26          2.3700    -0.0070    -1.1640 nb         1 1B3      -0.752000
      5 C27          3.6930    -0.0080    -1.2320 ca         1 1B3       0.764200
      6 N28          4.3380    -0.0140    -2.4500 nv         1 1B3      -1.078500
      7 C21          4.4280    -0.0020    -0.0210 ca         1 1B3      -0.301600
      8 C22          3.7050    -0.0010     1.1980 ca         1 1B3       0.464600
      9 C23          4.4030    -0.0010     2.4110 ca         1 1B3      -0.164300
     10 C20          5.8270    -0.0040    -0.0040 ca         1 1B3      -0.070000
     11 C19          6.4900     0.0030     1.1840 ca         1 1B3      -0.145000
     12 C18          5.7870    -0.0020     2.3980 cp         1 1B3      -0.022000
     13 C16          6.5340    -0.0010     3.6800 cp         1 1B3      -0.058000
     14 C17          7.9280    -0.0020     3.6770 ca         1 1B3      -0.016000
     15 C15          5.8450     0.0070     4.8910 ca         1 1B3      -0.051000
     16 C14          6.5440     0.0080     6.0810 ca         1 1B3      -0.141000
     17 C13          7.9280     0.0010     6.0720 ca         1 1B3      -0.032000
     18 C12          8.6180    -0.0010     4.8730 ca         1 1B3      -0.327500
     19 S9          10.3800    -0.0100     4.8720 sy         1 1B3       1.392900
     20 O10         10.7830     0.5330     3.6220 o          1 1B3      -0.582300
     21 O11         10.7840     0.5310     6.1220 o          1 1B3      -0.582300
     22 N5          10.8620    -1.5940     4.8700 ns         1 1B3      -0.630300
     23 C4          10.5850    -2.3810     3.8110 c          1 1B3       0.681100
     24 O8           9.9830    -1.9300     2.8610 o          1 1B3      -0.536100
     25 C3          11.0240    -3.8230     3.8100 c3         1 1B3       0.027500
     26 N7          10.2290    -4.5750     2.8300 nz         1 1B3      -0.793600
     27 C2          12.5060    -3.9050     3.4360 c3         1 1B3       0.126100
     28 C1          12.9200    -5.3730     3.3120 c3         1 1B3      -0.146100
     29 O6          12.7180    -3.2440     2.1880 oh         1 1B3      -0.606800
     30 H1           4.5540    -0.8830    -2.8980 hn         1 1B3       0.449800
     31 H2           4.5520     0.8500    -2.9070 hn         1 1B3       0.449800
     32 H3           3.8650    -0.0040     3.3520 ha         1 1B3       0.157000
     33 H4           6.3810     0.0000    -0.9350 ha         1 1B3       0.148000
     34 H5           7.5730     0.0020     1.1930 ha         1 1B3       0.138000
     35 H6           8.4690    -0.0040     2.7380 ha         1 1B3       0.167000
     36 H7           4.7620     0.0130     4.8990 ha         1 1B3       0.155000
     37 H8           6.0090     0.0110     7.0230 ha         1 1B3       0.153000
     38 H9           8.4730     0.0020     7.0080 ha         1 1B3       0.153000
     39 H10         11.3340    -1.9740     5.6660 hn         1 1B3       0.353500
     40 H11         10.8770    -4.2460     4.7960 hx         1 1B3       0.125700
     41 H12         10.4860    -4.2950     1.9050 hn         1 1B3       0.469467
     42 H13         10.4010    -5.5550     2.9420 hn         1 1B3       0.469467
     43 H15         13.0990    -3.4260     4.2050 h1         1 1B3       0.089700
     44 H16         12.6180    -5.7520     2.3430 hc         1 1B3       0.066033
     45 H17         12.4390    -5.9510     4.0920 hc         1 1B3       0.066033
     46 H18         13.9950    -5.4540     3.4130 hc         1 1B3       0.066033
     47 H19         13.6170    -2.9640     2.1290 ho         1 1B3       0.457000
     48 H73          9.2570    -4.3850     2.9740 hn         1 1B3       0.469467
@<TRIPOS>BOND
     1    28    27 1   
     2    16    15 ar  
     3    16    17 ar  
     4    15    13 ar  
     5    17    18 ar  
     6    29    27 1   
     7    27    25 1   
     8     1     2 1   
     9     3     2 ar  
    10     3     8 ar  
    11     9     8 ar  
    12     9    12 ar  
    13    13    12 1   
    14    13    14 ar  
    15    18    14 ar  
    16    18    19 1   
    17    25    23 1   
    18    25    26 1   
    19     2     4 ar  
    20     8     7 ar  
    21    22    23 1   
    22    22    19 1   
    23    20    19 2   
    24    12    11 ar  
    25    23    24 2   
    26    19    21 2   
    27     4     5 ar  
    28     7     5 ar  
    29     7    10 ar  
    30    11    10 ar  
    31     5     6 1   
    32     6    30 1   
    33     6    31 1   
    34     9    32 1   
    35    10    33 1   
    36    11    34 1   
    37    14    35 1   
    38    15    36 1   
    39    16    37 1   
    40    17    38 1   
    41    22    39 1   
    42    25    40 1   
    43    26    41 1   
    44    26    42 1   
    45    27    43 1   
    46    28    44 1   
    47    28    45 1   
    48    28    46 1   
    49    29    47 1   
    50    48    26 1   
@<TRIPOS>SUBSTRUCTURE
     1 1B3         1 TEMP              0 ****  ****    0 ROOT
