@<TRIPOS>MOLECULE
molecule
   49    51     1     0     0
SMALL
bcc


@<TRIPOS>ATOM
      1 C1           0.0000     0.0000     0.0000 cp         1 1B4      -0.076500
      2 N2          -0.6980    -0.1080    -3.6380 nb         1 1B4      -0.671000
      3 C3          -0.0480    -0.1060    -2.4920 ca         1 1B4       0.333900
      4 C4          -0.7430    -0.0010    -1.2830 cp         1 1B4       0.345500
      5 N5          -2.0670     0.0990    -1.2840 nb         1 1B4      -0.590000
      6 C6          -2.0220    -0.0080    -3.6520 ca         1 1B4       0.333500
      7 C7          -2.7230     0.0980    -2.4360 ca         1 1B4       0.358800
      8 C8          -4.1480     0.1900    -2.8000 cc         1 1B4      -0.316000
      9 C9          -4.2030     0.1340    -4.1620 cd         1 1B4      -0.053100
     10 N10         -2.9510     0.0180    -4.6680 na         1 1B4      -0.262100
     11 C11          1.3940     0.0000     0.0000 ca         1 1B4      -0.226500
     12 C12          2.0860     0.0000     1.1990 ca         1 1B4       0.152100
     13 C13          1.3900     0.0010     2.4030 ca         1 1B4       0.057100
     14 C14         -0.0010     0.0000     2.4060 ca         1 1B4       0.152100
     15 C15         -0.6950     0.0050     1.2080 ca         1 1B4      -0.226500
     16 O16          3.4460    -0.0000     1.1990 os         1 1B4      -0.312900
     17 C17          4.0950    -0.0010    -0.0740 c3         1 1B4       0.125200
     18 O18          2.0720     0.0020     3.5810 os         1 1B4      -0.325900
     19 C19          2.3960     1.2750     4.1420 c3         1 1B4       0.135700
     20 O20         -0.6790     0.0070     3.5840 os         1 1B4      -0.312900
     21 C21         -2.1060     0.0180     3.5130 c3         1 1B4       0.125200
     22 C22         -5.2860     0.3160    -1.8790 c          1 1B4       0.699300
     23 N23         -6.5410     0.3890    -2.3640 ns         1 1B4      -0.587900
     24 O24         -5.0940     0.3530    -0.6780 o          1 1B4      -0.587100
     25 C25         -7.6760     0.5140    -1.4450 c3         1 1B4       0.114700
     26 C26         -8.8460     1.1830    -2.1680 c3         1 1B4      -0.108100
     27 C27         -8.0990    -0.8760    -0.9650 c3         1 1B4      -0.108100
     28 H2          -5.1110     0.1770    -4.7510 h4         1 1B4       0.173000
     29 H3          -2.7330    -0.0410    -5.6430 hn         1 1B4       0.310700
     30 H4           1.9360    -0.0010    -0.9380 ha         1 1B4       0.154500
     31 H5          -1.7790     0.0040     1.2090 ha         1 1B4       0.154500
     32 H6           3.7810     0.8680    -0.6400 h1         1 1B4       0.044367
     33 H7           3.8270    -0.9010    -0.6150 h1         1 1B4       0.044367
     34 H8           5.1680     0.0290     0.0680 h1         1 1B4       0.044367
     35 H9           3.4720     1.3620     4.2420 h1         1 1B4       0.033700
     36 H10          1.9340     1.3680     5.1170 h1         1 1B4       0.033700
     37 H11          2.0300     2.0600     3.4910 h1         1 1B4       0.033700
     38 H12         -2.5170     0.0500     4.5140 h1         1 1B4       0.044367
     39 H13         -2.4490    -0.8780     3.0100 h1         1 1B4       0.044367
     40 H14         -2.4330     0.8900     2.9600 h1         1 1B4       0.044367
     41 H15         -6.6990     0.3410    -3.3510 hn         1 1B4       0.303500
     42 H16         -7.3860     1.1170    -0.5930 h1         1 1B4       0.081700
     43 H17         -9.6710     1.3120    -1.4780 hc         1 1B4       0.041867
     44 H18         -8.5340     2.1510    -2.5420 hc         1 1B4       0.041867
     45 H19         -9.1620     0.5610    -2.9960 hc         1 1B4       0.041867
     46 H20         -8.9940    -0.7920    -0.3610 hc         1 1B4       0.041867
     47 H21         -7.3030    -1.3110    -0.3740 hc         1 1B4       0.041867
     48 H22         -8.3000    -1.5080    -1.8220 hc         1 1B4       0.041867
     49 H1           1.0320    -0.1860    -2.4860 h4         1 1B4       0.037100
@<TRIPOS>BOND
     1    26    25 1
     2    21    20 1
     3    25    23 1
     4    25    27 1
     5    20    14 1
     6    19    18 1
     7    24    22 2
     8    23    22 1
     9    22     8 1
    10    14    15 ar
    11    14    13 ar
    12    15     1 ar
    13    18    13 1
    14    13    12 ar
    15     8     7 1
    16     8     9 2
    17     5     7 ar
    18     5     4 ar
    19     1     4 1
    20     1    11 ar
    21     7     6 ar
    22    12    11 ar
    23    12    16 1
    24     4     3 ar
    25     9    10 1
    26    16    17 1
    27     6    10 1
    28     6     2 ar
    29     3     2 ar
    30     3    49 1
    31     9    28 1
    32    10    29 1
    33    11    30 1
    34    15    31 1
    35    17    32 1
    36    17    33 1
    37    17    34 1
    38    19    35 1
    39    19    36 1
    40    19    37 1
    41    21    38 1
    42    21    39 1
    43    21    40 1
    44    23    41 1
    45    25    42 1
    46    26    43 1
    47    26    44 1
    48    26    45 1
    49    27    46 1
    50    27    47 1
    51    27    48 1
@<TRIPOS>SUBSTRUCTURE
     1 1B4         1 TEMP              0 ****  ****    0 ROOT
