@<TRIPOS>MOLECULE
1B4
   49    51     1     0     0
SMALL
bcc


@<TRIPOS>ATOM
      1 C1           0.0000     0.0000     0.0000 cp         1 1B4      -0.071500
      2 N2          -0.6980    -0.1080    -3.6380 nb         1 1B4      -0.544000
      3 C3          -0.0480    -0.1060    -2.4920 ca         1 1B4       0.303900
      4 C4          -0.7430    -0.0010    -1.2830 cp         1 1B4       0.293500
      5 N5          -2.0670     0.0990    -1.2840 nb         1 1B4      -0.451000
      6 C6          -2.0220    -0.0080    -3.6520 ca         1 1B4       0.095500
      7 C7          -2.7230     0.0980    -2.4360 ca         1 1B4       0.311800
      8 C8          -4.1480     0.1900    -2.8000 cc         1 1B4      -0.319000
      9 C9          -4.2030     0.1340    -4.1620 cd         1 1B4      -0.241100
     10 N10         -2.9510     0.0180    -4.6680 na         1 1B4       0.296900
     11 C11          1.3940     0.0000     0.0000 ca         1 1B4      -0.226000
     12 C12          2.0860     0.0000     1.1990 ca         1 1B4       0.160100
     13 C13          1.3900     0.0010     2.4030 ca         1 1B4       0.048100
     14 C14         -0.0010     0.0000     2.4060 ca         1 1B4       0.160100
     15 C15         -0.6950     0.0050     1.2080 ca         1 1B4      -0.226000
     16 O16          3.4460    -0.0000     1.1990 os         1 1B4      -0.294400
     17 C17          4.0950    -0.0010    -0.0740 c3         1 1B4       0.238700
     18 O18          2.0720     0.0020     3.5810 os         1 1B4      -0.310900
     19 C19          2.3960     1.2750     4.1420 c3         1 1B4       0.251700
     20 O20         -0.6790     0.0070     3.5840 os         1 1B4      -0.294400
     21 C21         -2.1060     0.0180     3.5130 c3         1 1B4       0.238700
     22 C22         -5.2860     0.3160    -1.8790 c          1 1B4       0.627300
     23 N23         -6.5410     0.3890    -2.3640 ns         1 1B4      -0.202900
     24 O24         -5.0940     0.3530    -0.6780 o          1 1B4      -0.634100
     25 C25         -7.6760     0.5140    -1.4450 c3         1 1B4       0.019700
     26 C26         -8.8460     1.1830    -2.1680 c3         1 1B4      -0.012600
     27 C27         -8.0990    -0.8760    -0.9650 c3         1 1B4      -0.012600
     28 H2          -5.1110     0.1770    -4.7510 h4         1 1B4       0.143000
     29 H3          -2.7330    -0.0410    -5.6430 hn         1 1B4       0.119700
     30 H4           1.9360    -0.0010    -0.9380 ha         1 1B4       0.142000
     31 H5          -1.7790     0.0040     1.2090 ha         1 1B4       0.142000
     32 H6           3.7810     0.8680    -0.6400 h1         1 1B4      -0.000300
     33 H7           3.8270    -0.9010    -0.6150 h1         1 1B4      -0.000300
     34 H8           5.1680     0.0290     0.0680 h1         1 1B4      -0.000300
     35 H9           3.4720     1.3620     4.2420 h1         1 1B4      -0.010300
     36 H10          1.9340     1.3680     5.1170 h1         1 1B4      -0.010300
     37 H11          2.0300     2.0600     3.4910 h1         1 1B4      -0.010300
     38 H12         -2.5170     0.0500     4.5140 h1         1 1B4      -0.000300
     39 H13         -2.4490    -0.8780     3.0100 h1         1 1B4      -0.000300
     40 H14         -2.4330     0.8900     2.9600 h1         1 1B4      -0.000300
     41 H15         -6.6990     0.3410    -3.3510 hn         1 1B4       0.167500
     42 H16         -7.3860     1.1170    -0.5930 h1         1 1B4       0.056700
     43 H17         -9.6710     1.3120    -1.4780 hc         1 1B4       0.009700
     44 H18         -8.5340     2.1510    -2.5420 hc         1 1B4       0.009700
     45 H19         -9.1620     0.5610    -2.9960 hc         1 1B4       0.009700
     46 H20         -8.9940    -0.7920    -0.3610 hc         1 1B4       0.009700
     47 H21         -7.3030    -1.3110    -0.3740 hc         1 1B4       0.009700
     48 H22         -8.3000    -1.5080    -1.8220 hc         1 1B4       0.009700
     49 H1           1.0320    -0.1860    -2.4860 h4         1 1B4      -0.003900
@<TRIPOS>BOND
     1     1     4 1   
     2     1    11 ar  
     3     1    15 ar  
     4     2     3 ar  
     5     2     6 ar  
     6     3     4 ar  
     7     3    49 1   
     8     4     5 ar  
     9     5     7 ar  
    10     6     7 ar  
    11     6    10 1   
    12     7     8 1   
    13     8     9 2   
    14     8    22 1   
    15     9    10 1   
    16     9    28 1   
    17    10    29 1   
    18    11    12 ar  
    19    11    30 1   
    20    12    13 ar  
    21    12    16 1   
    22    13    14 ar  
    23    13    18 1   
    24    14    15 ar  
    25    14    20 1   
    26    15    31 1   
    27    16    17 1   
    28    17    32 1   
    29    17    33 1   
    30    17    34 1   
    31    18    19 1   
    32    19    35 1   
    33    19    36 1   
    34    19    37 1   
    35    20    21 1   
    36    21    38 1   
    37    21    39 1   
    38    21    40 1   
    39    22    23 1   
    40    22    24 2   
    41    23    25 1   
    42    23    41 1   
    43    25    26 1   
    44    25    27 1   
    45    25    42 1   
    46    26    43 1   
    47    26    44 1   
    48    26    45 1   
    49    27    46 1   
    50    27    47 1   
    51    27    48 1   
@<TRIPOS>SUBSTRUCTURE
     1 1B4         1 TEMP              0 ****  ****    0 ROOT
