@<TRIPOS>MOLECULE
1B4
   50    52     1     0     0
SMALL
bcc


@<TRIPOS>ATOM
      1 C1          -0.2550    -0.3880     0.0440 cp         1 1B4      -0.128500
      2 N2          -0.8470    -0.8820    -3.6380 nb         1 1B4      -0.582000
      3 C3          -0.2930    -0.8220    -2.4250 ca         1 1B4       0.319900
      4 C4          -0.9940    -0.4030    -1.2280 cp         1 1B4       0.410500
      5 N5          -2.2930    -0.0370    -1.2570 nb         1 1B4      -0.671000
      6 C6          -2.1610    -0.5080    -3.6680 ca         1 1B4       0.301500
      7 C7          -2.8840    -0.0860    -2.4730 ca         1 1B4       0.330800
      8 C8          -4.2320     0.2250    -2.9090 cc         1 1B4      -0.422000
      9 C9          -4.2740    -0.0170    -4.3070 cd         1 1B4       0.068900
     10 N10         -3.0550    -0.4490    -4.7610 na         1 1B4      -0.226100
     11 C11          1.0550     0.1130     0.0650 ca         1 1B4      -0.183000
     12 C12          1.7610     0.1320     1.2700 ca         1 1B4       0.147600
     13 C13          1.1750    -0.3590     2.4670 ca         1 1B4       0.035100
     14 C14         -0.1390    -0.8560     2.4230 ca         1 1B4       0.147600
     15 C15         -0.8530    -0.8650     1.2050 ca         1 1B4      -0.183000
     16 O16          3.0470     0.6030     1.3990 os         1 1B4      -0.320400
     17 C17          3.6430     1.1710     0.2350 c3         1 1B4       0.114700
     18 O18          1.8230    -0.2380     3.6800 os         1 1B4      -0.327900
     19 C19          3.0250    -1.0080     3.8000 c3         1 1B4       0.109700
     20 O20         -0.8750    -1.3380     3.4790 os         1 1B4      -0.320400
     21 C21         -0.2470    -1.4370     4.7560 c3         1 1B4       0.114700
     22 C22         -5.3390     0.6850    -2.1310 c          1 1B4       0.607300
     23 N23         -5.0340     0.8890    -0.6610 ny         1 1B4      -0.664800
     24 O24         -6.4830     0.9260    -2.5060 o          1 1B4      -0.466100
     25 C25         -6.1930     1.4140     0.1520 c3         1 1B4       0.132500
     26 C26         -5.9930     1.1000     1.6290 c3         1 1B4      -0.130100
     27 C27         -6.3820     2.9110    -0.0530 c3         1 1B4      -0.130100
     28 H2          -5.1360     0.1080    -4.9800 h4         1 1B4       0.215000
     29 H3          -2.8190    -0.6900    -5.6960 hn         1 1B4       0.346700
     30 H4           1.5090     0.5040    -0.8560 ha         1 1B4       0.148500
     31 H5          -1.8740    -1.2710     1.2030 ha         1 1B4       0.148500
     32 H6           4.6460     1.5080     0.6030 h1         1 1B4       0.055033
     33 H7           3.7540     0.3990    -0.5650 h1         1 1B4       0.055033
     34 H8           3.0440     2.0390    -0.1310 h1         1 1B4       0.055033
     35 H9           3.3580    -0.7960     4.8470 h1         1 1B4       0.053033
     36 H10          2.8040    -2.0930     3.6610 h1         1 1B4       0.053033
     37 H11          3.7890    -0.6630     3.0630 h1         1 1B4       0.053033
     38 H12          0.6500    -2.0980     4.7020 h1         1 1B4       0.055033
     39 H13          0.0350    -0.4230     5.1300 h1         1 1B4       0.055033
     40 H14         -1.0470    -1.8960     5.3920 h1         1 1B4       0.055033
     41 H15         -4.2470     1.5460    -0.5830 hn         1 1B4       0.467800
     42 H16         -7.1150     0.8730    -0.2250 hx         1 1B4       0.118700
     43 H17         -6.8950     1.4600     2.1860 hc         1 1B4       0.075033
     44 H18         -5.0960     1.6220     2.0410 hc         1 1B4       0.075033
     45 H19         -5.8920     0.0020     1.8080 hc         1 1B4       0.075033
     46 H20         -5.4970     3.4890     0.3090 hc         1 1B4       0.075033
     47 H21         -6.5680     3.1480    -1.1290 hc         1 1B4       0.075033
     48 H22         -7.2770     3.2340     0.5350 hc         1 1B4       0.075033
     49 H232        -4.7320    -0.0110    -0.2690 hn         1 1B4       0.467800
     50 H1           0.7690    -1.1280    -2.3580 h4         1 1B4       0.065100
@<TRIPOS>BOND
     1     1     4 1   
     2     1    11 ar  
     3     1    15 ar  
     4     2     3 ar  
     5     2     6 ar  
     6     3     4 ar  
     7     3    50 1   
     8     4     5 ar  
     9     5     7 ar  
    10     6     7 ar  
    11     6    10 1   
    12     7     8 1   
    13     8     9 2   
    14     8    22 1   
    15     9    10 1   
    16     9    28 1   
    17    10    29 1   
    18    11    12 ar  
    19    11    30 1   
    20    12    13 ar  
    21    12    16 1   
    22    13    14 ar  
    23    13    18 1   
    24    14    15 ar  
    25    14    20 1   
    26    15    31 1   
    27    16    17 1   
    28    17    32 1   
    29    17    33 1   
    30    17    34 1   
    31    18    19 1   
    32    19    35 1   
    33    19    36 1   
    34    19    37 1   
    35    20    21 1   
    36    21    38 1   
    37    21    39 1   
    38    21    40 1   
    39    22    23 1   
    40    22    24 2   
    41    23    25 1   
    42    23    41 1   
    43    23    49 1   
    44    25    26 1   
    45    25    27 1   
    46    25    42 1   
    47    26    43 1   
    48    26    44 1   
    49    26    45 1   
    50    27    46 1   
    51    27    47 1   
    52    27    48 1   
@<TRIPOS>SUBSTRUCTURE
     1 1B4         1 TEMP              0 ****  ****    0 ROOT
