@<TRIPOS>MOLECULE
molecule
   43    46     1     0     0
SMALL
bcc


@<TRIPOS>ATOM
      1 C1           0.0000     0.0000     0.0000 ca         1 1B5       0.351900
      2 C2           1.3980     0.0000     0.0000 ca         1 1B5       0.294700
      3 N3           2.0640     0.0000     1.1500 nb         1 1B5      -0.584000
      4 C4           1.3940     0.0020     2.2940 ca         1 1B5       0.354800
      5 C5          -0.0150     0.0020     2.2920 ca         1 1B5       0.338500
      6 N6          -0.6680     0.0010     1.1350 nb         1 1B5      -0.673000
      7 C7           1.7920     0.0030     3.7120 cc         1 1B5      -0.314000
      8 C8           0.6370     0.0040     4.4390 cd         1 1B5      -0.054100
      9 N9          -0.4290     0.0040     3.6040 na         1 1B5      -0.260100
     10 C10          2.1390    -0.0020    -1.2830 cc         1 1B5       0.318900
     11 C11          3.1640     0.0030     4.2400 c          1 1B5       0.697300
     12 O12          4.1100     0.0010     3.4750 o          1 1B5      -0.584100
     13 N13          3.3730     0.0030     5.5720 ns         1 1B5      -0.587900
     14 C14          4.7400     0.0030     6.0980 c3         1 1B5       0.114700
     15 N15          1.6950    -0.4500    -2.4340 nd         1 1B5      -0.496100
     16 N16          2.6730    -0.2860    -3.4190 na         1 1B5       0.063900
     17 C17          3.7860     0.2930    -2.8620 ca         1 1B5      -0.014200
     18 C18          3.4990     0.5030    -1.5000 ca         1 1B5      -0.221900
     19 C19          5.0260     0.6750    -3.3670 ca         1 1B5      -0.161000
     20 C20          5.9570     1.2480    -2.5300 ca         1 1B5       0.074400
     21 C21          5.6720     1.4460    -1.1830 ca         1 1B5      -0.169000
     22 C22          4.4580     1.0860    -0.6700 ca         1 1B5      -0.025000
     23 C23          2.5330    -0.6710    -4.8250 c3         1 1B5       0.072600
     24 Cl2          7.5040     1.7230    -3.1600 cl         1 1B5      -0.110400
     25 C25          5.2630     1.4390     6.1620 c3         1 1B5      -0.108600
     26 C26          4.7470    -0.6060     7.5020 c3         1 1B5      -0.108600
     27 H1          -0.5380    -0.0000    -0.9400 h4         1 1B5       0.050100
     28 H2           0.5820     0.0060     5.5200 h4         1 1B5       0.174000
     29 H3          -1.3850     0.0050     3.9010 hn         1 1B5       0.310700
     30 H4           2.5950    -0.0080     6.2000 hn         1 1B5       0.303500
     31 H5           5.3770    -0.5840     5.4480 h1         1 1B5       0.082700
     32 H6           5.2570     0.5240    -4.4150 ha         1 1B5       0.142000
     33 H7           6.4150     1.8980    -0.5380 ha         1 1B5       0.148000
     34 H8           4.2440     1.2440     0.3800 ha         1 1B5       0.169000
     35 H9           3.3300    -1.3540    -5.0940 h1         1 1B5       0.053367
     36 H10          2.5880     0.2120    -5.4490 h1         1 1B5       0.053367
     37 H11          1.5760    -1.1580    -4.9720 h1         1 1B5       0.053367
     38 H12          5.3490     1.8370     5.1590 hc         1 1B5       0.041867
     39 H13          4.5750     2.0490     6.7350 hc         1 1B5       0.041867
     40 H14          6.2360     1.4480     6.6390 hc         1 1B5       0.041867
     41 H15          4.3350    -1.6070     7.4630 hc         1 1B5       0.041867
     42 H16          4.1460     0.0060     8.1640 hc         1 1B5       0.041867
     43 H17          5.7640    -0.6480     7.8720 hc         1 1B5       0.041867
@<TRIPOS>BOND
     1    25    14 1
     2    24    20 1
     3    14    13 1
     4    14    26 1
     5    21    20 ar
     6    21    22 ar
     7    20    19 ar
     8    22    18 ar
     9    13    11 1
    10    19    17 ar
    11    12    11 2
    12    11     7 1
    13    18    17 ar
    14    18    10 1
    15    17    16 1
    16     7     4 1
    17     7     8 2
    18     3     4 ar
    19     3     2 ar
    20    16    23 1
    21    16    15 1
    22    10     2 1
    23    10    15 2
    24     4     5 ar
    25     2     1 ar
    26     8     9 1
    27     5     9 1
    28     5     6 ar
    29     1     6 ar
    30     1    27 1
    31     8    28 1
    32     9    29 1
    33    13    30 1
    34    14    31 1
    35    19    32 1
    36    21    33 1
    37    22    34 1
    38    23    35 1
    39    23    36 1
    40    23    37 1
    41    25    38 1
    42    25    39 1
    43    25    40 1
    44    26    41 1
    45    26    42 1
    46    26    43 1
@<TRIPOS>SUBSTRUCTURE
     1 1B5         1 TEMP              0 ****  ****    0 ROOT
