@<TRIPOS>MOLECULE
1B5
   44    47     1     0     0
SMALL
bcc


@<TRIPOS>ATOM
      1 C1           0.0290     0.3480    -0.0430 ca         1 1B5       0.335900
      2 C2           1.4680     0.1650    -0.0250 ca         1 1B5       0.367700
      3 N3           2.1690     0.1210     1.1280 nb         1 1B5      -0.675000
      4 C4           1.4350     0.2630     2.2560 ca         1 1B5       0.329800
      5 C5          -0.0110     0.4570     2.2200 ca         1 1B5       0.302500
      6 N6          -0.7190     0.4960     1.0520 nb         1 1B5      -0.583000
      7 C7           1.8030     0.2620     3.6600 cc         1 1B5      -0.424000
      8 C8           0.6050     0.4610     4.3960 cd         1 1B5       0.067900
      9 N9          -0.4680     0.5770     3.5520 na         1 1B5      -0.225100
     10 C10          2.1700     0.0300    -1.2940 cc         1 1B5       0.222900
     11 C11          3.0930     0.0830     4.2470 c          1 1B5       0.607300
     12 O12          3.3990     0.1100     5.4360 o          1 1B5      -0.466100
     13 N13          4.2050    -0.1830     3.2520 ny         1 1B5      -0.664800
     14 C14          5.5640    -0.3910     3.8750 c3         1 1B5       0.131500
     15 N15          1.6280    -0.5910    -2.3840 nd         1 1B5      -0.460100
     16 N16          2.5180    -0.5630    -3.3750 na         1 1B5       0.126900
     17 C17          3.7000     0.1060    -2.9860 ca         1 1B5      -0.056200
     18 C18          3.5070     0.5070    -1.6120 ca         1 1B5      -0.174900
     19 C19          4.8890     0.3920    -3.6740 ca         1 1B5      -0.114000
     20 C20          5.8670     1.0870    -2.9750 ca         1 1B5       0.042400
     21 C21          5.6840     1.5000    -1.6350 ca         1 1B5      -0.140000
     22 C22          4.5140     1.2140    -0.9540 ca         1 1B5      -0.074000
     23 C23          2.2690    -1.0740    -4.7050 c3         1 1B5       0.035600
     24 Cl2          7.3290     1.4640    -3.7490 cl         1 1B5      -0.057400
     25 C25          6.4740    -1.1620     2.9270 c3         1 1B5      -0.130100
     26 C26          6.2040     0.9330     4.2670 c3         1 1B5      -0.130100
     27 H1          -0.5150     0.3710    -1.0080 h4         1 1B5       0.075100
     28 H2           0.4970     0.5200     5.4890 h4         1 1B5       0.215000
     29 H3          -1.4170     0.7190     3.8110 hn         1 1B5       0.346700
     30 H4           3.9540    -1.0200     2.7090 hn         1 1B5       0.466300
     31 H5           5.3920    -1.0060     4.8120 hx         1 1B5       0.118700
     32 H6           5.0340     0.0830    -4.7200 ha         1 1B5       0.166000
     33 H7           6.4880     2.0670    -1.1370 ha         1 1B5       0.153000
     34 H8           4.3700     1.5510     0.0820 ha         1 1B5       0.127000
     35 H9           3.2400    -1.4470    -5.1250 h1         1 1B5       0.073700
     36 H10          1.8660    -0.2510    -5.3550 h1         1 1B5       0.073700
     37 H11          1.5260    -1.9150    -4.6680 h1         1 1B5       0.073700
     38 H12          6.0410    -2.1560     2.6560 hc         1 1B5       0.075033
     39 H13          6.6770    -0.5850     1.9930 hc         1 1B5       0.075033
     40 H14          7.4480    -1.3400     3.4490 hc         1 1B5       0.075033
     41 H15          7.1830     0.7160     4.7620 hc         1 1B5       0.075033
     42 H16          5.5620     1.4900     4.9930 hc         1 1B5       0.075033
     43 H17          6.3980     1.5760     3.3740 hc         1 1B5       0.075033
     44 H132         4.2520     0.6100     2.6000 hn         1 1B5       0.466300
@<TRIPOS>BOND
     1     1     2 ar  
     2     1     6 ar  
     3     1    27 1   
     4     2     3 ar  
     5     2    10 1   
     6     3     4 ar  
     7     4     5 ar  
     8     4     7 1   
     9     5     6 ar  
    10     5     9 1   
    11     7     8 2   
    12     7    11 1   
    13     8     9 1   
    14     8    28 1   
    15     9    29 1   
    16    10    15 2   
    17    10    18 1   
    18    11    12 2   
    19    11    13 1   
    20    13    14 1   
    21    13    30 1   
    22    13    44 1   
    23    14    25 1   
    24    14    26 1   
    25    14    31 1   
    26    15    16 1   
    27    16    17 1   
    28    16    23 1   
    29    17    18 ar  
    30    17    19 ar  
    31    18    22 ar  
    32    19    20 ar  
    33    19    32 1   
    34    20    21 ar  
    35    20    24 1   
    36    21    22 ar  
    37    21    33 1   
    38    22    34 1   
    39    23    35 1   
    40    23    36 1   
    41    23    37 1   
    42    25    38 1   
    43    25    39 1   
    44    25    40 1   
    45    26    41 1   
    46    26    42 1   
    47    26    43 1   
@<TRIPOS>SUBSTRUCTURE
     1 1B5         1 TEMP              0 ****  ****    0 ROOT
