@<TRIPOS>MOLECULE
1B5
   43    46     1     0     0
SMALL
bcc


@<TRIPOS>ATOM
      1 C1           0.0000     0.0000     0.0000 ca         1 1B5       0.327900
      2 C2           1.3980     0.0000     0.0000 ca         1 1B5       0.236700
      3 N3           2.0640     0.0000     1.1500 nb         1 1B5      -0.447000
      4 C4           1.3940     0.0020     2.2940 ca         1 1B5       0.305800
      5 C5          -0.0150     0.0020     2.2920 ca         1 1B5       0.099500
      6 N6          -0.6680     0.0010     1.1350 nb         1 1B5      -0.549000
      7 C7           1.7920     0.0030     3.7120 cc         1 1B5      -0.317000
      8 C8           0.6370     0.0040     4.4390 cd         1 1B5      -0.243100
      9 N9          -0.4290     0.0040     3.6040 na         1 1B5       0.298900
     10 C10          2.1390    -0.0020    -1.2830 cc         1 1B5       0.339900
     11 C11          3.1640     0.0030     4.2400 c          1 1B5       0.626300
     12 O12          4.1100     0.0010     3.4750 o          1 1B5      -0.632100
     13 N13          3.3730     0.0030     5.5720 ns         1 1B5      -0.203900
     14 C14          4.7400     0.0030     6.0980 c3         1 1B5       0.018700
     15 N15          1.6950    -0.4500    -2.4340 nd         1 1B5      -0.619100
     16 N16          2.6730    -0.2860    -3.4190 na         1 1B5       0.459900
     17 C17          3.7860     0.2930    -2.8620 ca         1 1B5      -0.165200
     18 C18          3.4990     0.5030    -1.5000 ca         1 1B5      -0.229900
     19 C19          5.0260     0.6750    -3.3670 ca         1 1B5      -0.129000
     20 C20          5.9570     1.2480    -2.5300 ca         1 1B5       0.013400
     21 C21          5.6720     1.4460    -1.1830 ca         1 1B5      -0.149000
     22 C22          4.4580     1.0860    -0.6700 ca         1 1B5       0.009000
     23 C23          2.5330    -0.6710    -4.8250 c3         1 1B5       0.035600
     24 Cl2          7.5040     1.7230    -3.1600 cl         1 1B5      -0.034400
     25 C25          5.2630     1.4390     6.1620 c3         1 1B5      -0.012100
     26 C26          4.7470    -0.6060     7.5020 c3         1 1B5      -0.012100
     27 H1          -0.5380    -0.0000    -0.9400 h4         1 1B5       0.004100
     28 H2           0.5820     0.0060     5.5200 h4         1 1B5       0.144000
     29 H3          -1.3850     0.0050     3.9010 hn         1 1B5       0.119700
     30 H4           2.5950    -0.0080     6.2000 hn         1 1B5       0.167500
     31 H5           5.3770    -0.5840     5.4480 h1         1 1B5       0.057700
     32 H6           5.2570     0.5240    -4.4150 ha         1 1B5       0.115000
     33 H7           6.4150     1.8980    -0.5380 ha         1 1B5       0.120000
     34 H8           4.2440     1.2440     0.3800 ha         1 1B5       0.133000
     35 H9           3.3300    -1.3540    -5.0940 h1         1 1B5       0.018033
     36 H10          2.5880     0.2120    -5.4490 h1         1 1B5       0.018033
     37 H11          1.5760    -1.1580    -4.9720 h1         1 1B5       0.018033
     38 H12          5.3490     1.8370     5.1590 hc         1 1B5       0.009700
     39 H13          4.5750     2.0490     6.7350 hc         1 1B5       0.009700
     40 H14          6.2360     1.4480     6.6390 hc         1 1B5       0.009700
     41 H15          4.3350    -1.6070     7.4630 hc         1 1B5       0.009700
     42 H16          4.1460     0.0060     8.1640 hc         1 1B5       0.009700
     43 H17          5.7640    -0.6480     7.8720 hc         1 1B5       0.009700
@<TRIPOS>BOND
     1     1     2 ar  
     2     1     6 ar  
     3     1    27 1   
     4     2     3 ar  
     5     2    10 1   
     6     3     4 ar  
     7     4     5 ar  
     8     4     7 1   
     9     5     6 ar  
    10     5     9 1   
    11     7     8 2   
    12     7    11 1   
    13     8     9 1   
    14     8    28 1   
    15     9    29 1   
    16    10    15 2   
    17    10    18 1   
    18    11    12 2   
    19    11    13 1   
    20    13    14 1   
    21    13    30 1   
    22    14    25 1   
    23    14    26 1   
    24    14    31 1   
    25    15    16 1   
    26    16    17 1   
    27    16    23 1   
    28    17    18 ar  
    29    17    19 ar  
    30    18    22 ar  
    31    19    20 ar  
    32    19    32 1   
    33    20    21 ar  
    34    20    24 1   
    35    21    22 ar  
    36    21    33 1   
    37    22    34 1   
    38    23    35 1   
    39    23    36 1   
    40    23    37 1   
    41    25    38 1   
    42    25    39 1   
    43    25    40 1   
    44    26    41 1   
    45    26    42 1   
    46    26    43 1   
@<TRIPOS>SUBSTRUCTURE
     1 1B5         1 TEMP              0 ****  ****    0 ROOT
