@<TRIPOS>MOLECULE
molecule
   47    50     1     0     0
SMALL
bcc


@<TRIPOS>ATOM
      1 N1           0.0000     0.0000     0.0000 nb         1 1B6      -0.677000
      2 C2           1.3180     0.0000     0.0000 ca         1 1B6       0.349900
      3 C3           2.0260     0.0000     1.2050 ca         1 1B6       0.292000
      4 N4           1.3720     0.0000     2.3610 nb         1 1B6      -0.609000
      5 C5           0.0460     0.0000     2.3630 ca         1 1B6       0.356800
      6 C6          -0.6660     0.0000     1.1480 ca         1 1B6       0.327500
      7 C7          -0.9740     0.0000     3.4270 cc         1 1B6      -0.321000
      8 C8          -2.1860     0.0020     2.8000 cd         1 1B6      -0.056100
      9 N9          -2.0080     0.0010     1.4570 na         1 1B6      -0.262100
     10 C10          3.5080    -0.0010     1.1920 cd         1 1B6       0.248300
     11 C11         -0.7330     0.0010     4.8770 c          1 1B6       0.703300
     12 N12         -1.7750     0.0000     5.7330 ns         1 1B6      -0.585900
     13 O13          0.4060    -0.0010     5.3040 o          1 1B6      -0.593100
     14 C14         -1.5350    -0.0000     7.1770 c3         1 1B6       0.127400
     15 C15         -0.7390     1.2480     7.5620 c3         1 1B6      -0.102100
     16 C16         -2.8750     0.0010     7.9160 c3         1 1B6      -0.102100
     17 N17          4.3000    -0.4620     0.1970 nd         1 1B6      -0.693000
     18 C18          5.5510    -0.3020     0.5330 cc         1 1B6       0.398400
     19 N19          5.6060     0.2680     1.7520 na         1 1B6      -0.186900
     20 C20          4.3170     0.4630     2.1710 cc         1 1B6      -0.161900
     21 C21         -0.7410    -1.2500     7.5620 c3         1 1B6      -0.102100
     22 C22          6.7910     0.6370     2.5290 c3         1 1B6       0.044300
     23 C23          6.3720     1.6240     3.6240 c3         1 1B6      -0.102400
     24 C24          5.1780     1.0590     4.3990 c3         1 1B6      -0.086400
     25 C25          3.9370     1.0770     3.4920 c3         1 1B6      -0.012100
     26 H1           1.8560    -0.0000    -0.9400 h4         1 1B6       0.054100
     27 H2          -3.1460     0.0020     3.3010 h4         1 1B6       0.170000
     28 H3          -2.7480     0.0020     0.7830 hn         1 1B6       0.307700
     29 H4          -2.7110    -0.0160     5.3810 hn         1 1B6       0.303500
     30 H5          -1.1610     2.1140     7.0660 hc         1 1B6       0.044922
     31 H6          -0.7850     1.3890     8.6350 hc         1 1B6       0.044922
     32 H7           0.2940     1.1260     7.2590 hc         1 1B6       0.044922
     33 H8          -2.6980    -0.0010     8.9850 hc         1 1B6       0.044922
     34 H9          -3.4370     0.8860     7.6440 hc         1 1B6       0.044922
     35 H10         -3.4380    -0.8830     7.6430 hc         1 1B6       0.044922
     36 H11          6.4070    -0.5810    -0.0710 h5         1 1B6       0.064100
     37 H12         -0.7650    -1.3770     8.6370 hc         1 1B6       0.044922
     38 H13          0.2850    -1.1420     7.2340 hc         1 1B6       0.044922
     39 H14         -1.1820    -2.1180     7.0860 hc         1 1B6       0.044922
     40 H15          7.5190     1.1060     1.8780 h1         1 1B6       0.057200
     41 H16          7.2180    -0.2490     2.9830 h1         1 1B6       0.057200
     42 H17          7.2010     1.7780     4.3050 hc         1 1B6       0.055200
     43 H18          6.0920     2.5670     3.1710 hc         1 1B6       0.055200
     44 H19          4.9870     1.7070     5.2470 hc         1 1B6       0.055200
     45 H20          5.3960     0.0290     4.6540 hc         1 1B6       0.055200
     46 H21          3.1430     0.4990     3.9490 hc         1 1B6       0.083700
     47 H22          3.6120     2.0990     3.3390 hc         1 1B6       0.083700
@<TRIPOS>BOND
     1    24    23 1
     2    24    25 1
     3    16    14 1
     4    23    22 1
     5    21    14 1
     6    22    19 1
     7    25    20 1
     8    14    12 1
     9    14    15 1
    10    12    11 1
    11    20    19 1
    12    20    10 2
    13    19    18 1
    14    11    13 2
    15    11     7 1
    16     4     5 ar
    17     4     3 ar
    18    10     3 1
    19    10    17 1
    20    18    17 2
    21     7     5 1
    22     7     8 2
    23     5     6 ar
    24     3     2 ar
    25     8     9 1
    26     6     9 1
    27     6     1 ar
    28     2     1 ar
    29     2    26 1
    30     8    27 1
    31     9    28 1
    32    12    29 1
    33    15    30 1
    34    15    31 1
    35    15    32 1
    36    16    33 1
    37    16    34 1
    38    16    35 1
    39    18    36 1
    40    21    37 1
    41    21    38 1
    42    21    39 1
    43    22    40 1
    44    22    41 1
    45    23    42 1
    46    23    43 1
    47    24    44 1
    48    24    45 1
    49    25    46 1
    50    25    47 1
@<TRIPOS>SUBSTRUCTURE
     1 1B6         1 TEMP              0 ****  ****    0 ROOT
