@<TRIPOS>MOLECULE
1B6
   48    51     1     0     0
SMALL
bcc


@<TRIPOS>ATOM
      1 N1          -0.0400    -0.0290    -0.1080 nb         1 1B6      -0.587000
      2 C2           1.2880    -0.0190    -0.0120 ca         1 1B6       0.339900
      3 C3           2.0150     0.0230     1.2490 ca         1 1B6       0.357000
      4 N4           1.3730     0.0670     2.4370 nb         1 1B6      -0.706000
      5 C5           0.0200     0.0630     2.3670 ca         1 1B6       0.331800
      6 C6          -0.6890     0.0090     1.0960 ca         1 1B6       0.291500
      7 C7          -1.0050     0.1030     3.3940 cc         1 1B6      -0.428000
      8 C8          -2.2570     0.0620     2.7240 cd         1 1B6       0.059900
      9 N9          -2.0760     0.0080     1.3680 na         1 1B6      -0.221100
     10 C10          3.4640     0.0150     1.2140 cc         1 1B6       0.192300
     11 C11         -0.8490     0.1760     4.8140 c          1 1B6       0.612300
     12 N12          0.5920     0.3020     5.2610 ny         1 1B6      -0.664800
     13 O13         -1.7290     0.1530     5.6710 o          1 1B6      -0.471100
     14 C14          0.8760     0.4280     6.7530 c3         1 1B6       0.159200
     15 C15          0.2010     1.6720     7.3320 c3         1 1B6      -0.127433
     16 C16          0.4040    -0.8190     7.5010 c3         1 1B6      -0.127433
     17 N17          4.1950     0.3380     0.0540 nc         1 1B6      -0.645000
     18 C18          5.4920     0.2310     0.3890 cd         1 1B6       0.426400
     19 N19          5.6440    -0.1520     1.7310 na         1 1B6      -0.192900
     20 C20          4.3640    -0.2960     2.2690 cd         1 1B6      -0.127900
     21 C21          2.3970     0.5660     6.9270 c3         1 1B6      -0.127433
     22 C22          6.8560    -0.4120     2.4600 c3         1 1B6       0.031300
     23 C23          6.6230    -0.4680     3.9720 c3         1 1B6      -0.093400
     24 C24          5.3870    -1.2710     4.3180 c3         1 1B6      -0.087400
     25 C25          4.1340    -0.6990     3.6720 c3         1 1B6      -0.005100
     26 H1           1.8430    -0.0440    -0.9720 h4         1 1B6       0.083100
     27 H2          -3.2570     0.0730     3.1800 h4         1 1B6       0.212000
     28 H3          -2.7850    -0.0250     0.6730 hn         1 1B6       0.344700
     29 H4           0.9860     1.1300     4.7980 hn         1 1B6       0.463300
     30 H5           0.5030     1.7680     8.4040 hc         1 1B6       0.073922
     31 H6          -0.9130     1.5850     7.2900 hc         1 1B6       0.073922
     32 H7           0.5210     2.5960     6.7930 hc         1 1B6       0.073922
     33 H8           0.6880    -0.7110     8.5780 hc         1 1B6       0.073922
     34 H9          -0.7080    -0.9290     7.4430 hc         1 1B6       0.073922
     35 H10          0.8890    -1.7410     7.1010 hc         1 1B6       0.073922
     36 H11          6.3450     0.4150    -0.2760 h5         1 1B6       0.082100
     37 H12          2.6200     0.6330     8.0210 hc         1 1B6       0.073922
     38 H13          2.7800     1.4930     6.4350 hc         1 1B6       0.073922
     39 H14          2.9380    -0.3200     6.5130 hc         1 1B6       0.073922
     40 H15          7.6030     0.3970     2.2200 h1         1 1B6       0.072700
     41 H16          7.2790    -1.3980     2.1080 h1         1 1B6       0.072700
     42 H17          6.5260     0.5730     4.3770 hc         1 1B6       0.066700
     43 H18          7.5270    -0.9350     4.4440 hc         1 1B6       0.066700
     44 H19          5.5270    -2.3320     3.9810 hc         1 1B6       0.057700
     45 H20          5.2510    -1.2860     5.4310 hc         1 1B6       0.057700
     46 H21          3.7830     0.2000     4.2500 hc         1 1B6       0.051700
     47 H22          3.3120    -1.4650     3.7050 hc         1 1B6       0.051700
     48 H122         1.0980    -0.5240     4.9170 hn         1 1B6       0.463300
@<TRIPOS>BOND
     1     1     2 ar  
     2     1     6 ar  
     3     2     3 ar  
     4     2    26 1   
     5     3     4 ar  
     6     3    10 1   
     7     4     5 ar  
     8     5     6 ar  
     9     5     7 1   
    10     6     9 1   
    11     7     8 2   
    12     7    11 1   
    13     8     9 1   
    14     8    27 1   
    15     9    28 1   
    16    10    17 1   
    17    10    20 2   
    18    11    12 1   
    19    11    13 2   
    20    12    14 1   
    21    12    29 1   
    22    12    48 1   
    23    14    15 1   
    24    14    16 1   
    25    14    21 1   
    26    15    30 1   
    27    15    31 1   
    28    15    32 1   
    29    16    33 1   
    30    16    34 1   
    31    16    35 1   
    32    17    18 2   
    33    18    19 1   
    34    18    36 1   
    35    19    20 1   
    36    19    22 1   
    37    20    25 1   
    38    21    37 1   
    39    21    38 1   
    40    21    39 1   
    41    22    23 1   
    42    22    40 1   
    43    22    41 1   
    44    23    24 1   
    45    23    42 1   
    46    23    43 1   
    47    24    25 1   
    48    24    44 1   
    49    24    45 1   
    50    25    46 1   
    51    25    47 1   
@<TRIPOS>SUBSTRUCTURE
     1 1B6         1 TEMP              0 ****  ****    0 ROOT
