@<TRIPOS>MOLECULE
1B7
   52    54     1     0     0
SMALL
bcc


@<TRIPOS>ATOM
      1 C1          -1.8870     1.2270     1.3410 ca         1 1B7      -0.137000
      2 C3          -0.2660    -0.0170     2.6540 ca         1 1B7      -0.206900
      3 C4           0.5030     1.1400     2.8010 ca         1 1B7      -0.081000
      4 C5           0.0800     2.3400     2.2290 ca         1 1B7      -0.123000
      5 C6          -1.1130     2.3820     1.5040 ca         1 1B7       0.048400
      6 C7          -2.2930    -1.1990     1.7540 c3         1 1B7      -0.069100
      7 C8          -1.4620    -2.5030     1.8090 c3         1 1B7       0.147200
      8 C10          0.1050    -1.3450     3.1940 ce         1 1B7       0.579800
      9 C11         -2.4330    -3.6570     2.1150 c3         1 1B7      -0.088100
     10 C12         -0.8560    -2.7590     0.4160 c3         1 1B7      -0.088100
     11 C15          1.8630     0.4850     5.7840 c          1 1B7       0.927600
     12 C18          0.8360    -1.6160     6.7190 c3         1 1B7      -0.029100
     13 C19         -0.0710    -2.7730     6.6090 cc         1 1B7      -0.132300
     14 C20          0.3080    -4.0350     6.1910 cd         1 1B7      -0.191100
     15 C23         -1.4670    -2.7410     6.9710 cc         1 1B7      -0.084300
     16 Cl1         -1.6310     3.8400     0.8080 cl         1 1B7      -0.071400
     17 C2          -1.4650     0.0260     1.9090 ca         1 1B7      -0.037300
     18 N9          -0.4110    -2.4760     2.8250 n2         1 1B7      -0.573900
     19 N13          1.1640    -1.3950     4.2300 ny         1 1B7      -0.722000
     20 C14          0.8100    -0.6890     5.5090 c3         1 1B7      -0.046500
     21 S21         -0.9610    -5.1100     6.2320 ss         1 1B7       0.048200
     22 C22         -2.0500    -3.9800     6.7930 cd         1 1B7      -0.180100
     23 C24         -2.1250    -1.5220     7.4830 c3         1 1B7      -0.022100
     24 C26         -3.6170    -1.6790     7.6920 c3         1 1B7      -0.076400
     25 C27         -4.2360    -0.3930     8.1750 c3         1 1B7      -0.095100
     26 O16          1.6350     1.1770     6.7880 o          1 1B7      -0.764800
     27 O17          2.7970     0.5800     4.9390 o          1 1B7      -0.764800
     28 H1          -2.8250     1.2630     0.7650 ha         1 1B7       0.154000
     29 H2           1.4520     1.1480     3.3770 ha         1 1B7       0.199000
     30 H3           0.6900     3.2480     2.3610 ha         1 1B7       0.169000
     31 H4          -3.0600    -1.2140     2.5760 hc         1 1B7       0.073200
     32 H5          -2.8490    -1.1720     0.7800 hc         1 1B7       0.073200
     33 H6          -1.9010    -4.6370     2.0740 hc         1 1B7       0.050867
     34 H7          -2.8920    -3.5380     3.1250 hc         1 1B7       0.050867
     35 H8          -3.2440    -3.6510     1.3470 hc         1 1B7       0.050867
     36 H9          -0.2450    -3.6930     0.4170 hc         1 1B7       0.050867
     37 H10         -0.2140    -1.9030     0.1020 hc         1 1B7       0.050867
     38 H11         -1.6850    -2.8770    -0.3220 hc         1 1B7       0.050867
     39 H12          0.5490    -0.9720     7.6000 hc         1 1B7       0.090700
     40 H13          1.8880    -1.9700     6.9000 hc         1 1B7       0.090700
     41 H14          1.3160    -4.3250     5.8970 h4         1 1B7       0.165000
     42 H15          2.0130    -0.9060     3.8570 hn         1 1B7       0.467300
     43 H16         -0.2050    -0.2220     5.3910 hx         1 1B7       0.099700
     44 H18         -3.0940    -4.2170     6.9980 h4         1 1B7       0.174000
     45 H19         -1.9360    -0.6740     6.7680 hc         1 1B7       0.058700
     46 H20         -1.6410    -1.2350     8.4590 hc         1 1B7       0.058700
     47 H21         -4.1010    -1.9940     6.7300 hc         1 1B7       0.038700
     48 H22         -3.8070    -2.4930     8.4410 hc         1 1B7       0.038700
     49 H23         -3.7790    -0.0740     9.1430 hc         1 1B7       0.036367
     50 H24         -4.0810     0.4250     7.4300 hc         1 1B7       0.036367
     51 H25         -5.3340    -0.5260     8.3300 hc         1 1B7       0.036367
     52 H132         1.4040    -2.3710     4.4450 hn         1 1B7       0.467300
@<TRIPOS>BOND
     1     1     5 ar  
     2     1    17 ar  
     3     1    28 1   
     4     2     3 ar  
     5     2     8 1   
     6     2    17 ar  
     7     3     4 ar  
     8     3    29 1   
     9     4     5 ar  
    10     4    30 1   
    11     5    16 1   
    12     6     7 1   
    13     6    17 1   
    14     6    31 1   
    15     6    32 1   
    16     7     9 1   
    17     7    10 1   
    18     7    18 1   
    19     8    18 2   
    20     8    19 1   
    21     9    33 1   
    22     9    34 1   
    23     9    35 1   
    24    10    36 1   
    25    10    37 1   
    26    10    38 1   
    27    11    20 1   
    28    11    26 1   
    29    11    27 1   
    30    12    13 1   
    31    12    20 1   
    32    12    39 1   
    33    12    40 1   
    34    13    14 2   
    35    13    15 1   
    36    14    21 1   
    37    14    41 1   
    38    15    22 2   
    39    15    23 1   
    40    19    20 1   
    41    19    42 1   
    42    19    52 1   
    43    20    43 1   
    44    21    22 1   
    45    22    44 1   
    46    23    24 1   
    47    23    45 1   
    48    23    46 1   
    49    24    25 1   
    50    24    47 1   
    51    24    48 1   
    52    25    49 1   
    53    25    50 1   
    54    25    51 1   
@<TRIPOS>SUBSTRUCTURE
     1 1B7         1 TEMP              0 ****  ****    0 ROOT
