@<TRIPOS>MOLECULE
molecule
   51    53     1     0     0
SMALL
bcc


@<TRIPOS>ATOM
      1 C1           0.0000     0.0000     0.0000 ca         1 1B7      -0.131000
      2 C3           0.0170    -0.0040     2.4010 ca         1 1B7      -0.152900
      3 C4           1.4080    -0.0100     2.3970 ca         1 1B7      -0.100000
      4 C5           2.0870     0.0000     1.1940 ca         1 1B7      -0.137000
      5 C6           1.3860     0.0000     0.0000 ca         1 1B7       0.030400
      6 C7          -2.1900     0.0040     1.2290 c3         1 1B7      -0.058100
      7 C8          -2.6760    -0.7910     2.4400 c3         1 1B7       0.168200
      8 C10         -0.7500    -0.0030     3.6670 ce         1 1B7       0.704800
      9 C11         -4.1830    -0.5880     2.6040 c3         1 1B7      -0.080600
     10 C12         -2.3920    -2.2770     2.2100 c3         1 1B7      -0.080600
     11 C15         -1.5940     1.7020     6.2650 c          1 1B7       0.884600
     12 C18          0.0420     0.1360     7.2720 c3         1 1B7      -0.018100
     13 C19          0.6210    -1.2520     7.1800 cd         1 1B7      -0.108300
     14 C20          0.2280    -2.1330     6.2590 cc         1 1B7      -0.044100
     15 C23          1.6040    -1.7090     8.0410 cd         1 1B7      -0.100300
     16 Cl1          2.2490     0.0000    -1.5070 cl         1 1B7      -0.139400
     17 C2          -0.6850    -0.0000     1.1930 ca         1 1B7      -0.039300
     18 N9          -2.0010    -0.3600     3.6600 n2         1 1B7      -0.704900
     19 N13         -0.1430     0.3730     4.8460 nu         1 1B7      -0.832200
     20 C14         -0.9060     0.3720     6.0960 c3         1 1B7       0.130500
     21 S21          1.1210    -3.6350     6.4600 ss         1 1B7      -0.245800
     22 C22          2.0070    -2.9620     7.8220 cc         1 1B7      -0.088100
     23 C24          2.1780    -0.8540     9.1410 c3         1 1B7      -0.017100
     24 C26          1.2940    -0.9620    10.3850 c3         1 1B7      -0.080400
     25 C27          1.8750    -0.0950    11.5030 c3         1 1B7      -0.092100
     26 H1          -0.5430     0.0000    -0.9380 ha         1 1B7       0.138000
     27 H2           1.9560    -0.0100     3.3320 ha         1 1B7       0.142000
     28 H3           3.1700     0.0000     1.1850 ha         1 1B7       0.135000
     29 H4          -2.5450     1.0250     1.3050 hc         1 1B7       0.057700
     30 H5          -2.5730    -0.4500     0.3240 hc         1 1B7       0.057700
     31 H6          -4.6960    -0.9620     1.7260 hc         1 1B7       0.033700
     32 H7          -4.5270    -1.1240     3.4800 hc         1 1B7       0.033700
     33 H8          -4.3940     0.4680     2.7220 hc         1 1B7       0.033700
     34 H9          -2.8450    -2.8580     3.0040 hc         1 1B7       0.033700
     35 H10         -2.8100    -2.5810     1.2580 hc         1 1B7       0.033700
     36 H11         -1.3220    -2.4440     2.2050 hc         1 1B7       0.033700
     37 H12          0.8440     0.8640     7.2420 hc         1 1B7       0.067700
     38 H13         -0.5040     0.2380     8.2020 hc         1 1B7       0.067700
     39 H14         -0.5270    -1.9520     5.5040 h4         1 1B7       0.199000
     40 H15          0.8060     0.6910     4.8400 hn         1 1B7       0.429800
     41 H16         -1.6480    -0.4160     6.0650 h1         1 1B7       0.082700
     42 H18          2.7640    -3.4840     8.3950 h4         1 1B7       0.155000
     43 H19          3.1790    -1.1950     9.3790 hc         1 1B7       0.044700
     44 H20          2.2170     0.1780     8.8140 hc         1 1B7       0.044700
     45 H21          1.2550    -1.9950    10.7120 hc         1 1B7       0.049700
     46 H22          0.2930    -0.6220    10.1470 hc         1 1B7       0.049700
     47 H23          1.2210    -0.1310    12.3660 hc         1 1B7       0.028700
     48 H24          1.9610     0.9290    11.1580 hc         1 1B7       0.028700
     49 H25          2.8550    -0.4670    11.7770 hc         1 1B7       0.028700
     50 O17         -1.4610     2.5630     5.4270 o          1 1B7      -0.838300
     51 O16         -2.3550     1.9320     7.3460 o          1 1B7      -0.838300
@<TRIPOS>BOND
     1    16     5 1   
     2     4     5 ar  
     3     4     3 ar  
     4     5     1 ar  
     5     3     2 ar  
     6    50    11 1   
     7     1    17 ar  
     8     2    17 ar  
     9     2     8 1   
    10    19     8 1   
    11    19    20 1   
    12    17     6 1   
    13    11    51 1   
    14    11    20 1   
    15     8    18 2   
    16    20    12 1   
    17    12    13 1   
    18    14    13 2   
    19    14    21 1   
    20     6     7 1   
    21    13    15 1   
    22    18     7 1   
    23     7    10 1   
    24     7     9 1   
    25    21    22 1   
    26    15    22 2   
    27    15    23 1   
    28    23    24 1   
    29    24    25 1   
    30     1    26 1   
    31     3    27 1   
    32     4    28 1   
    33     6    29 1   
    34     6    30 1   
    35     9    31 1   
    36     9    32 1   
    37     9    33 1   
    38    10    34 1   
    39    10    35 1   
    40    10    36 1   
    41    12    37 1   
    42    12    38 1   
    43    14    39 1   
    44    19    40 1   
    45    20    41 1   
    46    22    42 1   
    47    23    43 1   
    48    23    44 1   
    49    24    45 1   
    50    24    46 1   
    51    25    47 1   
    52    25    48 1   
    53    25    49 1   
@<TRIPOS>SUBSTRUCTURE
     1 1B7         1 TEMP              0 ****  ****    0 ROOT
