@<TRIPOS>MOLECULE
1B8
   50    53     1     0     0
SMALL
bcc


@<TRIPOS>ATOM
      1 Cl1          2.5120    -4.0910    -2.3240 cl         1 1B8      -0.071400
      2 C2           3.2350    -2.7030    -1.6680 ca         1 1B8       0.048400
      3 C3           3.3330    -2.5550    -0.2830 ca         1 1B8      -0.124000
      4 C4           3.9300    -1.4140     0.2540 ca         1 1B8      -0.080000
      5 C7           3.7250    -1.7110    -2.5250 ca         1 1B8      -0.137000
      6 C6           4.3190    -0.5680    -1.9910 ca         1 1B8      -0.037300
      7 C5           4.4340    -0.4230    -0.5920 ca         1 1B8      -0.207900
      8 C11          4.8540     0.4820    -2.8970 c3         1 1B8      -0.068100
      9 C10          4.8350     1.8910    -2.2590 c3         1 1B8       0.146200
     10 C29          3.4210     2.4810    -2.4110 c3         1 1B8      -0.087600
     11 C28          5.8000     2.7760    -3.0690 c3         1 1B8      -0.087600
     12 N9           5.2440     1.8940    -0.8540 n2         1 1B8      -0.582900
     13 C8           5.0610     0.8350    -0.1260 ce         1 1B8       0.584800
     14 N12          5.5030     0.9020     1.2870 ny         1 1B8      -0.727000
     15 C13          6.5610    -0.1050     1.6480 c3         1 1B8      -0.043500
     16 C25          6.0270    -1.0360     2.8390 c          1 1B8       0.928600
     17 O26          6.8220    -1.9040     3.2330 o          1 1B8      -0.763300
     18 O27          4.8500    -0.7920     3.2280 o          1 1B8      -0.763300
     19 C14          7.8550     0.5430     2.1210 c3         1 1B8      -0.038100
     20 C15          8.4800     1.4420     1.1310 cc         1 1B8      -0.074300
     21 C16          9.3470     1.0540     0.1190 cd         1 1B8      -0.101000
     22 Br1          9.9010    -0.6480    -0.2720 br         1 1B8      -0.006100
     23 S17          9.8810     2.3700    -0.7690 ss         1 1B8       0.105200
     24 C18          9.0110     3.4690     0.1050 cd         1 1B8      -0.167100
     25 C19          8.2800     2.8690     1.1200 cc         1 1B8      -0.038000
     26 C20          7.4370     3.5830     2.0310 cc         1 1B8      -0.220300
     27 C21          6.3850     4.4660     1.7120 cd         1 1B8      -0.143300
     28 N22          5.9040     4.9530     2.9270 na         1 1B8      -0.021600
     29 N23          6.5700     4.4610     3.9740 nd         1 1B8      -0.502800
     30 C24          7.5130     3.6190     3.4820 cc         1 1B8       0.315200
     31 H1           2.9490    -3.3360     0.3940 ha         1 1B8       0.169000
     32 H2           3.9950    -1.3350     1.3590 ha         1 1B8       0.201000
     33 H3           3.6430    -1.8290    -3.6170 ha         1 1B8       0.154000
     34 H4           4.2620     0.5150    -3.8490 hc         1 1B8       0.073700
     35 H5           5.9120     0.2120    -3.1680 hc         1 1B8       0.073700
     36 H6           3.1760     2.5580    -3.4970 hc         1 1B8       0.049533
     37 H7           3.3670     3.5010    -1.9620 hc         1 1B8       0.049533
     38 H8           2.6660     1.8240    -1.9180 hc         1 1B8       0.049533
     39 H9           5.4930     2.7450    -4.1410 hc         1 1B8       0.049533
     40 H10          5.7560     3.8320    -2.7100 hc         1 1B8       0.049533
     41 H11          6.8500     2.4090    -2.9840 hc         1 1B8       0.049533
     42 H12          5.8460     1.8470     1.5150 hn         1 1B8       0.472300
     43 H13          6.7490    -0.7640     0.7580 hx         1 1B8       0.103700
     44 H15          7.6680     1.1060     3.0770 hc         1 1B8       0.099700
     45 H16          8.5450    -0.3130     2.3770 hc         1 1B8       0.099700
     46 H17          9.0260     4.5410    -0.0920 h4         1 1B8       0.179000
     47 H18          5.9700     4.7630     0.7500 h4         1 1B8       0.186000
     48 H19          5.1730     5.6110     3.0620 hn         1 1B8       0.326700
     49 H20          8.2100     3.0800     4.1260 h4         1 1B8       0.059100
     50 H122         4.6790     0.6820     1.8970 hn         1 1B8       0.472300
@<TRIPOS>BOND
     1     1     2 1   
     2     2     3 ar  
     3     2     5 ar  
     4     3     4 ar  
     5     3    31 1   
     6     4     7 ar  
     7     4    32 1   
     8     5     6 ar  
     9     5    33 1   
    10     6     7 ar  
    11     6     8 1   
    12     7    13 1   
    13     8     9 1   
    14     8    34 1   
    15     8    35 1   
    16     9    10 1   
    17     9    11 1   
    18     9    12 1   
    19    10    36 1   
    20    10    37 1   
    21    10    38 1   
    22    11    39 1   
    23    11    40 1   
    24    11    41 1   
    25    12    13 2   
    26    13    14 1   
    27    14    15 1   
    28    14    42 1   
    29    14    50 1   
    30    15    16 1   
    31    15    19 1   
    32    15    43 1   
    33    16    17 1   
    34    16    18 1   
    35    19    20 1   
    36    19    44 1   
    37    19    45 1   
    38    20    21 2   
    39    20    25 1   
    40    21    22 1   
    41    21    23 1   
    42    23    24 1   
    43    24    25 2   
    44    24    46 1   
    45    25    26 1   
    46    26    27 2   
    47    26    30 1   
    48    27    28 1   
    49    27    47 1   
    50    28    29 1   
    51    28    48 1   
    52    29    30 2   
    53    30    49 1   
@<TRIPOS>SUBSTRUCTURE
     1 1B8         1 TEMP              0 ****  ****    0 ROOT
