@<TRIPOS>MOLECULE
molecule
   49    52     1     0     0
SMALL
bcc


@<TRIPOS>ATOM
      1 Cl1          0.0000     0.0000     0.0000 cl         1 1B8      -0.143400
      2 C2           1.7370     0.0000     0.0000 ca         1 1B8       0.028400
      3 C3           2.4240     0.0000     1.2020 ca         1 1B8      -0.139000
      4 C4           3.8060     0.0000     1.2110 ca         1 1B8      -0.107000
      5 C7           2.4250    -0.0050    -1.2030 ca         1 1B8      -0.133000
      6 C6           3.8020    -0.0060    -1.2030 ca         1 1B8      -0.041300
      7 C5           4.5010    -0.0000     0.0060 ca         1 1B8      -0.148900
      8 C11          4.5820    -0.0110    -2.4920 c3         1 1B8      -0.058100
      9 C10          5.8730     0.7850    -2.3100 c3         1 1B8       0.168200
     10 C29          6.7640     0.5820    -3.5370 c3         1 1B8      -0.080100
     11 C28          5.5320     2.2720    -2.1800 c3         1 1B8      -0.080100
     12 N9           6.5960     0.3550    -1.1190 n2         1 1B8      -0.700900
     13 C8           5.9810    -0.0010    -0.0300 ce         1 1B8       0.710800
     14 N12          6.7010    -0.3810     1.0820 nu         1 1B8      -0.840200
     15 C13          8.1650    -0.3810     1.0410 c3         1 1B8       0.145500
     16 C25          8.6520    -1.6820     0.4590 c          1 1B8       0.885600
     17 O26          9.9690    -1.9070     0.3230 o          1 1B8      -0.836300
     18 O27          7.8580    -2.5240     0.1120 o          1 1B8      -0.836300
     19 C14          8.7150    -0.2200     2.4600 c3         1 1B8      -0.033100
     20 C15          8.3300     1.1350     2.9970 cd         1 1B8      -0.032300
     21 C16          7.1990     1.3450     3.6700 cc         1 1B8       0.015000
     22 Br1          5.9070     0.0210     4.0620 br         1 1B8      -0.055100
     23 S17          7.0880     3.0360     4.1390 ss         1 1B8      -0.181800
     24 C18          8.6330     3.3850     3.3740 cc         1 1B8      -0.075100
     25 C19          9.1330     2.2610     2.8330 cd         1 1B8      -0.005000
     26 C20         10.4340     2.2240     2.1170 cd         1 1B8      -0.245300
     27 C21         10.8310     3.0710     1.1240 cc         1 1B8      -0.101300
     28 N22         12.0720     2.7000     0.7430 na         1 1B8      -0.048600
     29 N23         12.4550     1.5960     1.5160 nc         1 1B8      -0.505800
     30 C24         11.4820     1.3120     2.3420 cd         1 1B8       0.371200
     31 H1           1.8780     0.0000     2.1370 ha         1 1B8       0.133000
     32 H2           4.3440     0.0000     2.1510 ha         1 1B8       0.150000
     33 H3           1.8830    -0.0870    -2.1370 ha         1 1B8       0.137000
     34 H4           4.8240    -1.0320    -2.7620 hc         1 1B8       0.056200
     35 H5           3.9870     0.4430    -3.2750 hc         1 1B8       0.056200
     36 H6           6.9530    -0.4760    -3.6750 hc         1 1B8       0.032700
     37 H7           6.2660     0.9770    -4.4140 hc         1 1B8       0.032700
     38 H8           7.7040     1.1000    -3.3910 hc         1 1B8       0.032700
     39 H9           4.9110     2.5740    -3.0140 hc         1 1B8       0.032700
     40 H10          6.4460     2.8530    -2.1810 hc         1 1B8       0.032700
     41 H11          4.9980     2.4400    -1.2520 hc         1 1B8       0.032700
     42 H12          6.2230    -0.7050     1.8990 hn         1 1B8       0.434800
     43 H13          8.5090     0.4420     0.4250 h1         1 1B8       0.082700
     44 H15          8.3010    -0.9920     3.0970 hc         1 1B8       0.072700
     45 H16          9.7940    -0.3070     2.4400 hc         1 1B8       0.072700
     46 H17          9.1110     4.3570     3.3470 h4         1 1B8       0.164000
     47 H18         10.2560     3.8940     0.7160 h4         1 1B8       0.166000
     48 H19         12.6220     3.1360     0.0300 hn         1 1B8       0.321700
     49 H20         11.4800     0.5090     3.0690 h4         1 1B8       0.059100
@<TRIPOS>BOND
     1     1     2 1
     2     3     2 ar
     3     3     4 ar
     4     2     5 ar
     5     4     7 ar
     6    29    28 1
     7    29    30 2
     8    18    16 1
     9     5     6 ar
    10    28    27 1
    11     7     6 ar
    12     7    13 1
    13    30    26 1
    14     6     8 1
    15    16    17 1
    16    16    15 1
    17    14    13 1
    18    14    15 1
    19    27    26 2
    20    13    12 2
    21    26    25 1
    22    15    19 1
    23     8     9 1
    24    19    20 1
    25    12     9 1
    26    25    20 1
    27    25    24 2
    28     9    11 1
    29     9    10 1
    30    20    21 2
    31    24    23 1
    32    21    23 1
    33    21    22 1
    34     3    31 1
    35     4    32 1
    36     5    33 1
    37     8    34 1
    38     8    35 1
    39    10    36 1
    40    10    37 1
    41    10    38 1
    42    11    39 1
    43    11    40 1
    44    11    41 1
    45    14    42 1
    46    15    43 1
    47    19    44 1
    48    19    45 1
    49    24    46 1
    50    27    47 1
    51    28    48 1
    52    30    49 1
@<TRIPOS>SUBSTRUCTURE
     1 1B8         1 TEMP              0 ****  ****    0 ROOT
