@<TRIPOS>MOLECULE
1B8
   49    52     1     0     0
SMALL
bcc


@<TRIPOS>ATOM
      1 Cl1          0.0000     0.0000     0.0000 cl         1 1B8      -0.067400
      2 C2           1.7370     0.0000     0.0000 ca         1 1B8      -0.027600
      3 C3           2.4240     0.0000     1.2020 ca         1 1B8      -0.116000
      4 C4           3.8060     0.0000     1.2110 ca         1 1B8      -0.085000
      5 C7           2.4250    -0.0050    -1.2030 ca         1 1B8      -0.112000
      6 C6           3.8020    -0.0060    -1.2030 ca         1 1B8      -0.042300
      7 C5           4.5010    -0.0000     0.0060 ca         1 1B8      -0.129900
      8 C11          4.5820    -0.0110    -2.4920 c3         1 1B8       0.002900
      9 C10          5.8730     0.7850    -2.3100 c3         1 1B8       0.150200
     10 C29          6.7640     0.5820    -3.5370 c3         1 1B8      -0.000100
     11 C28          5.5320     2.2720    -2.1800 c3         1 1B8      -0.000100
     12 N9           6.5960     0.3550    -1.1190 n2         1 1B8      -0.656900
     13 C8           5.9810    -0.0010    -0.0300 ce         1 1B8       0.543800
     14 N12          6.7010    -0.3810     1.0820 nu         1 1B8      -0.417200
     15 C13          8.1650    -0.3810     1.0410 c3         1 1B8       0.026500
     16 C25          8.6520    -1.6820     0.4590 c          1 1B8       0.974600
     17 O26          9.9690    -1.9070     0.3230 o          1 1B8      -0.886300
     18 O27          7.8580    -2.5240     0.1120 o          1 1B8      -0.886300
     19 C14          8.7150    -0.2200     2.4600 c3         1 1B8       0.022900
     20 C15          8.3300     1.1350     2.9970 cc         1 1B8      -0.051300
     21 C16          7.1990     1.3450     3.6700 cd         1 1B8       0.100000
     22 Br1          5.9070     0.0210     4.0620 br         1 1B8      -0.058100
     23 S17          7.0880     3.0360     4.1390 ss         1 1B8      -0.300800
     24 C18          8.6330     3.3850     3.3740 cd         1 1B8      -0.016100
     25 C19          9.1330     2.2610     2.8330 cc         1 1B8       0.026000
     26 C20         10.4340     2.2240     2.1170 cc         1 1B8      -0.254300
     27 C21         10.8310     3.0710     1.1240 cd         1 1B8      -0.254300
     28 N22         12.0720     2.7000     0.7430 na         1 1B8       0.446400
     29 N23         12.4550     1.5960     1.5160 nd         1 1B8      -0.656800
     30 C24         11.4820     1.3120     2.3420 cc         1 1B8       0.435200
     31 H1           1.8780     0.0000     2.1370 ha         1 1B8       0.107000
     32 H2           4.3440     0.0000     2.1510 ha         1 1B8       0.117000
     33 H3           1.8830    -0.0870    -2.1370 ha         1 1B8       0.112000
     34 H4           4.8240    -1.0320    -2.7620 hc         1 1B8       0.029200
     35 H5           3.9870     0.4430    -3.2750 hc         1 1B8       0.029200
     36 H6           6.9530    -0.4760    -3.6750 hc         1 1B8       0.002867
     37 H7           6.2660     0.9770    -4.4140 hc         1 1B8       0.002867
     38 H8           7.7040     1.1000    -3.3910 hc         1 1B8       0.002867
     39 H9           4.9110     2.5740    -3.0140 hc         1 1B8       0.002867
     40 H10          6.4460     2.8530    -2.1810 hc         1 1B8       0.002867
     41 H11          4.9980     2.4400    -1.2520 hc         1 1B8       0.002867
     42 H12          6.2230    -0.7050     1.8990 hn         1 1B8       0.282800
     43 H13          8.5090     0.4420     0.4250 h1         1 1B8       0.063700
     44 H15          8.3010    -0.9920     3.0970 hc         1 1B8       0.046700
     45 H16          9.7940    -0.3070     2.4400 hc         1 1B8       0.046700
     46 H17          9.1110     4.3570     3.3470 h4         1 1B8       0.146000
     47 H18         10.2560     3.8940     0.7160 h4         1 1B8       0.141000
     48 H19         12.6220     3.1360     0.0300 hn         1 1B8       0.139700
     49 H20         11.4800     0.5090     3.0690 h4         1 1B8       0.015100
@<TRIPOS>BOND
     1     1     2 1   
     2     2     3 ar  
     3     2     5 ar  
     4     3     4 ar  
     5     3    31 1   
     6     4     7 ar  
     7     4    32 1   
     8     5     6 ar  
     9     5    33 1   
    10     6     7 ar  
    11     6     8 1   
    12     7    13 1   
    13     8     9 1   
    14     8    34 1   
    15     8    35 1   
    16     9    10 1   
    17     9    11 1   
    18     9    12 1   
    19    10    36 1   
    20    10    37 1   
    21    10    38 1   
    22    11    39 1   
    23    11    40 1   
    24    11    41 1   
    25    12    13 2   
    26    13    14 1   
    27    14    15 1   
    28    14    42 1   
    29    15    16 1   
    30    15    19 1   
    31    15    43 1   
    32    16    17 1   
    33    16    18 1   
    34    19    20 1   
    35    19    44 1   
    36    19    45 1   
    37    20    21 2   
    38    20    25 1   
    39    21    22 1   
    40    21    23 1   
    41    23    24 1   
    42    24    25 2   
    43    24    46 1   
    44    25    26 1   
    45    26    27 2   
    46    26    30 1   
    47    27    28 1   
    48    27    47 1   
    49    28    29 1   
    50    28    48 1   
    51    29    30 2   
    52    30    49 1   
@<TRIPOS>SUBSTRUCTURE
     1 1B8         1 TEMP              0 ****  ****    0 ROOT
