@<TRIPOS>MOLECULE
molecule
   42    44     1     0     0
SMALL
bcc


@<TRIPOS>ATOM
      1 Cl1          0.0000     0.0000     0.0000 cl         1 1B9      -0.139400
      2 C6           1.7360     0.0000     0.0000 ca         1 1B9       0.028400
      3 C5           2.4240     0.0000     1.2020 ca         1 1B9      -0.138000
      4 C4           3.8050     0.0010     1.2120 ca         1 1B9      -0.101000
      5 C1           2.4250    -0.0040    -1.2030 ca         1 1B9      -0.130000
      6 C2           3.8020    -0.0040    -1.2040 ca         1 1B9      -0.039300
      7 C3           4.5000     0.0010     0.0060 ca         1 1B9      -0.148900
      8 C7           4.5820    -0.0090    -2.4910 c3         1 1B9      -0.059100
      9 C8           5.8730     0.7880    -2.3100 c3         1 1B9       0.167200
     10 C11          6.7640     0.5850    -3.5360 c3         1 1B9      -0.080100
     11 C12          5.5310     2.2730    -2.1790 c3         1 1B9      -0.080100
     12 N9           6.5960     0.3570    -1.1180 n2         1 1B9      -0.693900
     13 C10          5.9790    -0.0000    -0.0290 ce         1 1B9       0.707800
     14 N13          6.7000    -0.3810     1.0810 nu         1 1B9      -0.832200
     15 C14          8.1650    -0.3800     1.0410 c3         1 1B9       0.139500
     16 C15          8.6530    -1.7020     0.5090 c          1 1B9       0.886600
     17 O17          7.8600    -2.5570     0.1960 o          1 1B9      -0.836800
     18 O16          9.9690    -1.9300     0.3830 o          1 1B9      -0.836800
     19 C18          8.7140    -0.1640     2.4530 c3         1 1B9      -0.026100
     20 C19          8.3180     1.2060     2.9420 cd         1 1B9      -0.067300
     21 C23          9.0150     2.3500     2.5950 cd         1 1B9      -0.022900
     22 Br2         10.5350     2.3150     1.4700 br         1 1B9      -0.061100
     23 C20          7.2660     1.4080     3.7370 cc         1 1B9      -0.079100
     24 S21          7.1190     3.1230     4.0950 ss         1 1B9      -0.215800
     25 C22          8.5320     3.4810     3.1130 cc         1 1B9      -0.057100
     26 H1           1.8770    -0.0000     2.1370 ha         1 1B9       0.133000
     27 H2           4.3440     0.0010     2.1510 ha         1 1B9       0.138000
     28 H3           1.8830    -0.0770    -2.1370 ha         1 1B9       0.138000
     29 H4           3.9860     0.4450    -3.2740 hc         1 1B9       0.056700
     30 H5           4.8240    -1.0290    -2.7610 hc         1 1B9       0.056700
     31 H6           6.2600     0.9690    -4.4160 hc         1 1B9       0.033700
     32 H7           7.6980     1.1150    -3.3960 hc         1 1B9       0.033700
     33 H8           6.9640    -0.4720    -3.6670 hc         1 1B9       0.033700
     34 H9           4.9970     2.4400    -1.2510 hc         1 1B9       0.033700
     35 H10          6.4450     2.8550    -2.1790 hc         1 1B9       0.033700
     36 H11          4.9100     2.5750    -3.0130 hc         1 1B9       0.033700
     37 H12          6.2230    -0.6940     1.9030 hn         1 1B9       0.422800
     38 H13          8.5080     0.4180     0.3950 h1         1 1B9       0.088700
     39 H15          9.7940    -0.2430     2.4360 hc         1 1B9       0.070700
     40 H16          8.3070    -0.9160     3.1180 hc         1 1B9       0.070700
     41 H17          6.6050     0.6340     4.1080 h4         1 1B9       0.168000
     42 H18          8.9470     4.4690     2.9520 h4         1 1B9       0.170000
@<TRIPOS>BOND
     1     1     2 1   
     2     3     2 ar  
     3     3     4 ar  
     4     2     5 ar  
     5     4     7 ar  
     6    17    16 1   
     7     5     6 ar  
     8     7     6 ar  
     9     7    13 1   
    10     6     8 1   
    11    16    18 1   
    12    16    15 1   
    13    14    13 1   
    14    14    15 1   
    15    13    12 2   
    16    15    19 1   
    17     8     9 1   
    18    19    20 1   
    19    23    20 2   
    20    23    24 1   
    21    12     9 1   
    22    20    21 1   
    23     9    11 1   
    24     9    10 1   
    25    24    25 1   
    26    21    25 2   
    27    21    22 1   
    28     3    26 1   
    29     4    27 1   
    30     5    28 1   
    31     8    29 1   
    32     8    30 1   
    33    10    31 1   
    34    10    32 1   
    35    10    33 1   
    36    11    34 1   
    37    11    35 1   
    38    11    36 1   
    39    14    37 1   
    40    15    38 1   
    41    19    39 1   
    42    19    40 1   
    43    23    41 1   
    44    25    42 1   
@<TRIPOS>SUBSTRUCTURE
     1 1B9         1 TEMP              0 ****  ****    0 ROOT
