@<TRIPOS>MOLECULE
1B9
   43    45     1     0     0
SMALL
bcc


@<TRIPOS>ATOM
      1 Cl1          2.1290    -3.5030    -1.4300 cl         1 1B9      -0.071400
      2 C6           3.1110    -2.2520    -0.8420 ca         1 1B9       0.048400
      3 C5           3.2300    -2.0460     0.5350 ca         1 1B9      -0.124000
      4 C4           4.0380    -1.0170     1.0170 ca         1 1B9      -0.081000
      5 C1           3.7960    -1.4300    -1.7440 ca         1 1B9      -0.137000
      6 C2           4.6030    -0.3990    -1.2650 ca         1 1B9      -0.035300
      7 C3           4.7320    -0.1950     0.1250 ca         1 1B9      -0.206900
      8 C7           5.3490     0.4630    -2.2200 c3         1 1B9      -0.070100
      9 C8           5.6250     1.8810    -1.6690 c3         1 1B9       0.148200
     10 C11          6.7700     2.4860    -2.5020 c3         1 1B9      -0.088100
     11 C12          4.3730     2.7490    -1.8950 c3         1 1B9      -0.088100
     12 N9           6.0020     1.8890    -0.2560 n2         1 1B9      -0.576900
     13 C10          5.5920     0.9410     0.5290 ce         1 1B9       0.581800
     14 N13          6.0110     1.0140     1.9490 ny         1 1B9      -0.722000
     15 C14          6.8700    -0.1360     2.3960 c3         1 1B9      -0.049500
     16 C15          6.1650    -0.8810     3.6270 c          1 1B9       0.928600
     17 O17          6.7860    -1.8520     4.0880 o          1 1B9      -0.762800
     18 O16          5.0510    -0.4000     3.9800 o          1 1B9      -0.762800
     19 C18          8.2520     0.3040     2.8610 c3         1 1B9      -0.032100
     20 C19          8.9820     1.1540     1.9010 cc         1 1B9      -0.099300
     21 C23          9.6790     0.6830     0.7340 cc         1 1B9      -0.059900
     22 Br2          9.7430    -1.0800     0.1900 br         1 1B9      -0.040100
     23 C20          9.1270     2.5240     2.0380 cd         1 1B9      -0.203100
     24 S21         10.0570     3.1780     0.8260 ss         1 1B9       0.096200
     25 C22         10.3050     1.7220     0.0700 cd         1 1B9      -0.159100
     26 H1           2.6940    -2.6940     1.2480 ha         1 1B9       0.168000
     27 H2           4.1140    -0.8900     2.1170 ha         1 1B9       0.199000
     28 H3           3.7000    -1.5940    -2.8290 ha         1 1B9       0.154000
     29 H4           6.3290    -0.0390    -2.4570 hc         1 1B9       0.074200
     30 H5           4.7830     0.5590    -3.1830 hc         1 1B9       0.074200
     31 H6           7.7150     1.9100    -2.3630 hc         1 1B9       0.050367
     32 H7           6.9480     3.5480    -2.2080 hc         1 1B9       0.050367
     33 H8           6.4800     2.4510    -3.5790 hc         1 1B9       0.050367
     34 H9           4.5330     3.7840    -1.5070 hc         1 1B9       0.050367
     35 H10          3.4860     2.3010    -1.3890 hc         1 1B9       0.050367
     36 H11          4.1700     2.8090    -2.9910 hc         1 1B9       0.050367
     37 H12          5.1480     0.9770     2.5470 hn         1 1B9       0.466800
     38 H13          6.9510    -0.8730     1.5510 hx         1 1B9       0.106700
     39 H15          8.1590     0.8440     3.8440 hc         1 1B9       0.097200
     40 H16          8.8220    -0.6480     3.0690 hc         1 1B9       0.097200
     41 H17          8.7160     3.1150     2.8560 h4         1 1B9       0.175000
     42 H18         10.9020     1.6190    -0.8380 h4         1 1B9       0.184000
     43 H132         6.5080     1.8930     2.1310 hn         1 1B9       0.466800
@<TRIPOS>BOND
     1     1     2 1   
     2     2     3 ar  
     3     2     5 ar  
     4     3     4 ar  
     5     3    26 1   
     6     4     7 ar  
     7     4    27 1   
     8     5     6 ar  
     9     5    28 1   
    10     6     7 ar  
    11     6     8 1   
    12     7    13 1   
    13     8     9 1   
    14     8    29 1   
    15     8    30 1   
    16     9    10 1   
    17     9    11 1   
    18     9    12 1   
    19    10    31 1   
    20    10    32 1   
    21    10    33 1   
    22    11    34 1   
    23    11    35 1   
    24    11    36 1   
    25    12    13 2   
    26    13    14 1   
    27    14    15 1   
    28    14    37 1   
    29    14    43 1   
    30    15    16 1   
    31    15    19 1   
    32    15    38 1   
    33    16    17 1   
    34    16    18 1   
    35    19    20 1   
    36    19    39 1   
    37    19    40 1   
    38    20    21 1   
    39    20    23 2   
    40    21    22 1   
    41    21    25 2   
    42    23    24 1   
    43    23    41 1   
    44    24    25 1   
    45    25    42 1   
@<TRIPOS>SUBSTRUCTURE
     1 1B9         1 TEMP              0 ****  ****    0 ROOT
