@<TRIPOS>MOLECULE
1B9
   42    44     1     0     0
SMALL
bcc


@<TRIPOS>ATOM
      1 Cl1          0.0000     0.0000     0.0000 cl         1 1B9      -0.064400
      2 C6           1.7360     0.0000     0.0000 ca         1 1B9      -0.027600
      3 C5           2.4240     0.0000     1.2020 ca         1 1B9      -0.116000
      4 C4           3.8050     0.0010     1.2120 ca         1 1B9      -0.078000
      5 C1           2.4250    -0.0040    -1.2030 ca         1 1B9      -0.111000
      6 C2           3.8020    -0.0040    -1.2040 ca         1 1B9      -0.040300
      7 C3           4.5000     0.0010     0.0060 ca         1 1B9      -0.132900
      8 C7           4.5820    -0.0090    -2.4910 c3         1 1B9       0.001900
      9 C8           5.8730     0.7880    -2.3100 c3         1 1B9       0.150200
     10 C11          6.7640     0.5850    -3.5360 c3         1 1B9      -0.000100
     11 C12          5.5310     2.2730    -2.1790 c3         1 1B9      -0.000100
     12 N9           6.5960     0.3570    -1.1180 n2         1 1B9      -0.652900
     13 C10          5.9790    -0.0000    -0.0290 ce         1 1B9       0.536800
     14 N13          6.7000    -0.3810     1.0810 nu         1 1B9      -0.400200
     15 C14          8.1650    -0.3800     1.0410 c3         1 1B9       0.016500
     16 C15          8.6530    -1.7020     0.5090 c          1 1B9       0.976600
     17 O17          7.8600    -2.5570     0.1960 o          1 1B9      -0.886800
     18 O16          9.9690    -1.9300     0.3830 o          1 1B9      -0.886800
     19 C18          8.7140    -0.1640     2.4530 c3         1 1B9       0.038900
     20 C19          8.3180     1.2060     2.9420 cc         1 1B9      -0.071300
     21 C23          9.0150     2.3500     2.5950 cc         1 1B9       0.027100
     22 Br2         10.5350     2.3150     1.4700 br         1 1B9      -0.076100
     23 C20          7.2660     1.4080     3.7370 cd         1 1B9      -0.017100
     24 S21          7.1190     3.1230     4.0950 ss         1 1B9      -0.318800
     25 C22          8.5320     3.4810     3.1130 cd         1 1B9      -0.001100
     26 H1           1.8770    -0.0000     2.1370 ha         1 1B9       0.107000
     27 H2           4.3440     0.0010     2.1510 ha         1 1B9       0.111000
     28 H3           1.8830    -0.0770    -2.1370 ha         1 1B9       0.112000
     29 H4           3.9860     0.4450    -3.2740 hc         1 1B9       0.029200
     30 H5           4.8240    -1.0290    -2.7610 hc         1 1B9       0.029200
     31 H6           6.2600     0.9690    -4.4160 hc         1 1B9       0.003700
     32 H7           7.6980     1.1150    -3.3960 hc         1 1B9       0.003700
     33 H8           6.9640    -0.4720    -3.6670 hc         1 1B9       0.003700
     34 H9           4.9970     2.4400    -1.2510 hc         1 1B9       0.003700
     35 H10          6.4450     2.8550    -2.1790 hc         1 1B9       0.003700
     36 H11          4.9100     2.5750    -3.0130 hc         1 1B9       0.003700
     37 H12          6.2230    -0.6940     1.9030 hn         1 1B9       0.271800
     38 H13          8.5080     0.4180     0.3950 h1         1 1B9       0.070700
     39 H15          9.7940    -0.2430     2.4360 hc         1 1B9       0.041200
     40 H16          8.3070    -0.9160     3.1180 hc         1 1B9       0.041200
     41 H17          6.6050     0.6340     4.1080 h4         1 1B9       0.150000
     42 H18          8.9470     4.4690     2.9520 h4         1 1B9       0.151000
@<TRIPOS>BOND
     1     1     2 1   
     2     2     3 ar  
     3     2     5 ar  
     4     3     4 ar  
     5     3    26 1   
     6     4     7 ar  
     7     4    27 1   
     8     5     6 ar  
     9     5    28 1   
    10     6     7 ar  
    11     6     8 1   
    12     7    13 1   
    13     8     9 1   
    14     8    29 1   
    15     8    30 1   
    16     9    10 1   
    17     9    11 1   
    18     9    12 1   
    19    10    31 1   
    20    10    32 1   
    21    10    33 1   
    22    11    34 1   
    23    11    35 1   
    24    11    36 1   
    25    12    13 2   
    26    13    14 1   
    27    14    15 1   
    28    14    37 1   
    29    15    16 1   
    30    15    19 1   
    31    15    38 1   
    32    16    17 1   
    33    16    18 1   
    34    19    20 1   
    35    19    39 1   
    36    19    40 1   
    37    20    21 1   
    38    20    23 2   
    39    21    22 1   
    40    21    25 2   
    41    23    24 1   
    42    23    41 1   
    43    24    25 1   
    44    25    42 1   
@<TRIPOS>SUBSTRUCTURE
     1 1B9         1 TEMP              0 ****  ****    0 ROOT
