@<TRIPOS>MOLECULE
molecule
   43    44     1     0     0
SMALL
bcc


@<TRIPOS>ATOM
      1 N1           0.0000     0.0000     0.0000 ny         1 1BA      -0.557800
      2 C4           3.8170     0.0520    -3.4020 ca         1 1BA       0.000700
      3 C5           4.3610     0.0330    -2.1380 ca         1 1BA      -0.123000
      4 C6           3.5230     0.0100    -1.0440 ca         1 1BA      -0.090000
      5 C7           2.1540     0.0110    -1.2030 ca         1 1BA      -0.216300
      6 C8           1.2990     0.0000     0.0000 c3         1 1BA       0.157100
      7 C10         -2.5740     0.4530     2.5700 ca         1 1BA      -0.268600
      8 C13         -3.7910     1.1820     4.8760 ca         1 1BA       0.285100
      9 C15         -3.4480    -0.4170     3.1720 ca         1 1BA       0.037000
     10 C17          2.4520     0.0540    -3.5460 ca         1 1BA      -0.123000
     11 C1           4.7280     1.4230    -5.2870 c3         1 1BA      -0.093100
     12 C3           6.0270    -0.5000    -4.4430 c3         1 1BA      -0.093100
     13 N2          -0.5720     0.0000     1.2480 ny         1 1BA      -0.665600
     14 C9          -1.9510     0.0250     1.3180 c          1 1BA       0.714700
     15 O1          -2.7150    -0.2800     0.4190 o          1 1BA      -0.176100
     16 C11         -2.3010     1.6900     3.1040 ca         1 1BA       0.037000
     17 C12         -2.9190     2.0640     4.2770 ca         1 1BA      -0.207500
     18 O2          -4.4170     1.5360     6.0450 oh         1 1BA      -0.425100
     19 C14         -4.0650    -0.0540     4.3400 ca         1 1BA      -0.207500
     20 C16          1.6120     0.0390    -2.4590 ca         1 1BA      -0.090000
     21 C2           4.6340     0.0540    -4.6600 c3         1 1BA      -0.040400
     22 HN1         -0.3160     0.8120    -0.4920 hn         1 1BA       0.472800
     23 H5           5.4360     0.0310    -2.0040 ha         1 1BA       0.162500
     24 H6           3.9460    -0.0050    -0.0460 ha         1 1BA       0.138000
     25 H81          1.5960    -0.8750     0.5660 hx         1 1BA       0.106700
     26 H82          1.5960     0.8640     0.5820 hx         1 1BA       0.106700
     27 H15         -3.6460    -1.3860     2.7290 ha         1 1BA       0.177000
     28 H17          2.0270     0.0670    -4.5420 ha         1 1BA       0.162500
     29 H11A         4.9750     2.1530    -4.5260 hc         1 1BA       0.047200
     30 H12A         5.5150     1.3960    -6.0310 hc         1 1BA       0.047200
     31 H13          3.7930     1.6990    -5.7620 hc         1 1BA       0.047200
     32 H2           4.1340    -0.5930    -5.3710 hc         1 1BA       0.067700
     33 H31          5.9610    -1.4500    -3.9270 hc         1 1BA       0.047200
     34 H32          6.5400    -0.6370    -5.3870 hc         1 1BA       0.047200
     35 H33          6.5760     0.2060    -3.8320 hc         1 1BA       0.047200
     36 HN2         -0.2310     0.8040     1.7360 hn         1 1BA       0.411800
     37 H11         -1.6090     2.3610     2.6100 ha         1 1BA       0.177000
     38 H12         -2.8850     3.0970     4.6010 ha         1 1BA       0.195000
     39 HO2         -5.1970     2.0270     5.8470 ho         1 1BA       0.469000
     40 H14         -4.7570    -0.7270     4.8320 ha         1 1BA       0.195000
     41 H16          0.5370     0.0400    -2.5940 ha         1 1BA       0.138000
     42 H121        -0.3160    -0.8120    -0.4920 hn         1 1BA       0.472800
     43 H23         -0.2600    -0.8240     1.7220 hn         1 1BA       0.411800
@<TRIPOS>BOND
     1     1     6 1   
     2     1    13 1   
     3     1    22 1   
     4     2     3 ar  
     5     2    10 ar  
     6     2    21 1   
     7     3     4 ar  
     8     3    23 1   
     9     4     5 ar  
    10     4    24 1   
    11     5     6 1   
    12     5    20 ar  
    13     6    25 1   
    14     6    26 1   
    15     7     9 ar  
    16     7    14 1   
    17     7    16 ar  
    18     8    17 ar  
    19     8    18 1   
    20     8    19 ar  
    21     9    19 ar  
    22     9    27 1   
    23    10    20 ar  
    24    10    28 1   
    25    11    21 1   
    26    11    29 1   
    27    11    30 1   
    28    11    31 1   
    29    21    12 1   
    30    21    32 1   
    31    12    33 1   
    32    12    34 1   
    33    12    35 1   
    34    13    14 1   
    35    13    36 1   
    36    14    15 2   
    37    16    17 ar  
    38    16    37 1   
    39    17    38 1   
    40    18    39 1   
    41    19    40 1   
    42    20    41 1   
    43    42     1 1   
    44    43    13 1   
@<TRIPOS>SUBSTRUCTURE
     1 1BA         1 TEMP              0 ****  ****    0 ROOT
