@<TRIPOS>MOLECULE
molecule
   41    42     1     0     0
SMALL
bcc


@<TRIPOS>ATOM
      1 N1           0.0000     0.0000     0.0000 n7         1 1BA      -0.498200
      2 C4           2.8920    -0.0010    -4.0280 ca         1 1BA      -0.068300
      3 C5           2.6580    -1.1980    -3.3780 ca         1 1BA      -0.124500
      4 C6           2.2010    -1.1980    -2.0730 ca         1 1BA      -0.108000
      5 C7           1.9710    -0.0000    -1.4220 ca         1 1BA      -0.096300
      6 C8           1.4690     0.0000     0.0000 c3         1 1BA       0.170100
      7 C10         -2.1260    -0.0000     3.0330 ca         1 1BA      -0.154600
      8 C13         -2.9210     0.0000     5.6880 ca         1 1BA       0.129100
      9 C15         -1.1690    -0.0050     4.0510 ca         1 1BA      -0.074000
     10 C17          2.6610     1.1970    -3.3770 ca         1 1BA      -0.124500
     11 C1           4.7440    -0.7210    -5.5140 c3         1 1BA      -0.085100
     12 C3           2.3880    -0.7240    -6.3460 c3         1 1BA      -0.085100
     13 N2          -0.3910     0.0000     1.3090 ns         1 1BA      -0.477300
     14 C9          -1.7030    -0.0010     1.6200 c          1 1BA       0.675700
     15 O1          -2.5380    -0.0020     0.7350 o          1 1BA      -0.589100
     16 C11         -3.4850    -0.0010     3.3580 ca         1 1BA      -0.074000
     17 C12         -3.8770    -0.0000     4.6780 ca         1 1BA      -0.163000
     18 O2          -3.3100     0.0010     6.9880 oh         1 1BA      -0.521100
     19 C14         -1.5680     0.0010     5.3700 ca         1 1BA      -0.163000
     20 C16          2.2000     1.1980    -2.0740 ca         1 1BA      -0.108000
     21 HN1         -0.3340     0.8300    -0.4480 hn         1 1BA       0.360800
     22 H5           2.8380    -2.1360    -3.8890 ha         1 1BA       0.133500
     23 H6           2.0170    -2.1360    -1.5630 ha         1 1BA       0.132000
     24 H81          1.8310     0.8850     0.5100 h1         1 1BA       0.044200
     25 H82          1.8310    -0.8840     0.5110 h1         1 1BA       0.044200
     26 H15         -0.1140    -0.0050     3.8040 ha         1 1BA       0.144000
     27 H17          2.8430     2.1340    -3.8880 ha         1 1BA       0.133500
     28 H11A         4.5920    -1.7850    -5.3750 hc         1 1BA       0.037033
     29 H12A         5.2130    -0.5450    -6.4740 hc         1 1BA       0.037033
     30 H13          5.3820    -0.3410    -4.7250 hc         1 1BA       0.037033
     31 H2           3.5130     1.0200    -5.7900 hc         1 1BA       0.053700
     32 H31          1.3920    -0.3420    -6.1530 hc         1 1BA       0.037033
     33 H32          2.6310    -0.5840    -7.3920 hc         1 1BA       0.037033
     34 H33          2.4220    -1.7790    -6.1050 hc         1 1BA       0.037033
     35 HN2          0.2950    -0.0410     2.0360 hn         1 1BA       0.317500
     36 H11         -4.2300     0.0010     2.5710 ha         1 1BA       0.144000
     37 H12         -4.9300    -0.0010     4.9310 ha         1 1BA       0.146000
     38 HO2         -3.4250     0.8900     7.2820 ho         1 1BA       0.424000
     39 H14         -0.8260    -0.0010     6.1600 ha         1 1BA       0.146000
     40 H16          2.0200     2.1360    -1.5630 ha         1 1BA       0.132000
     41 C2           3.3940    -0.0010    -5.4490 c3         1 1BA      -0.032400
@<TRIPOS>BOND
     1     1     6 1
     2     1    13 1
     3     1    21 1
     4     2     3 ar
     5     2    10 ar
     6     2    41 1
     7     3     4 ar
     8     3    22 1
     9     4     5 ar
    10     4    23 1
    11     5     6 1
    12     5    20 ar
    13     6    24 1
    14     6    25 1
    15     7     9 ar
    16     7    14 1
    17     7    16 ar
    18     8    17 ar
    19     8    18 1
    20     8    19 ar
    21     9    19 ar
    22     9    26 1
    23    10    20 ar
    24    10    27 1
    25    11    41 1
    26    11    28 1
    27    11    29 1
    28    11    30 1
    29    41    12 1
    30    41    31 1
    31    12    32 1
    32    12    33 1
    33    12    34 1
    34    13    14 1
    35    13    35 1
    36    14    15 2
    37    16    17 ar
    38    16    36 1
    39    17    37 1
    40    18    38 1
    41    19    39 1
    42    20    40 1
@<TRIPOS>SUBSTRUCTURE
     1 1BA         1 TEMP              0 ****  ****    0 ROOT
