@<TRIPOS>MOLECULE
1BB
   53    56     1     0     0
SMALL
bcc


@<TRIPOS>ATOM
      1 Cl1          0.0000     0.0000     0.0000 cl         1 1BB      -0.019400
      2 C1           1.7360     0.0000     0.0000 ca         1 1BB      -0.016600
      3 C2           2.4260     0.0000     1.2040 ca         1 1BB      -0.102000
      4 C3           3.8020    -0.0000     1.2030 ca         1 1BB      -0.041300
      5 C4           4.5010    -0.0000    -0.0060 ca         1 1BB      -0.170900
      6 C5           3.8060     0.0010    -1.2110 ca         1 1BB      -0.067000
      7 C6           2.4240    -0.0050    -1.2010 ca         1 1BB      -0.107000
      8 C9           4.5820    -0.0020     2.4920 c3         1 1BB       0.001900
      9 C10          5.8730    -0.7970     2.3080 c3         1 1BB       0.154200
     10 N11          6.5970    -0.3610     1.1180 n2         1 1BB      -0.683900
     11 C12          5.9810     0.0000     0.0300 ce         1 1BB       0.549800
     12 N13          6.7000     0.3810    -1.0810 nu         1 1BB      -0.431200
     13 C14          8.1620     0.2820    -1.0750 c3         1 1BB       0.109200
     14 C15          8.6670     0.1030    -2.5080 c3         1 1BB       0.023900
     15 C27          6.7640    -0.6000     3.5350 c3         1 1BB       0.000900
     16 C28          5.5310    -2.2820     2.1700 c3         1 1BB       0.000900
     17 C7           8.7480     1.5420    -0.4900 cc         1 1BB       0.420200
     18 N8           9.8710     1.4500     0.2450 na         1 1BB      -0.133000
     19 C11         10.4470     2.5430     0.7910 cc         1 1BB      -0.057000
     20 C13          9.8640     3.7780     0.5870 cd         1 1BB      -0.110900
     21 C19          8.6360     3.8290    -0.2240 c          1 1BB       0.709700
     22 N24          8.1480     2.6770    -0.7210 nd         1 1BB      -0.583100
     23 O25          8.0740     4.8890    -0.4410 o          1 1BB      -0.571100
     24 C26          8.1910    -1.2210    -3.0470 ca         1 1BB      -0.103300
     25 C29          7.0400    -1.2820    -3.8110 ca         1 1BB      -0.096500
     26 C30          6.6030    -2.4970    -4.3060 ca         1 1BB      -0.092500
     27 C31          7.3160    -3.6500    -4.0360 ca         1 1BB      -0.094000
     28 C32          8.4660    -3.5880    -3.2710 ca         1 1BB      -0.092500
     29 C33          8.9070    -2.3730    -2.7820 ca         1 1BB      -0.096500
     30 C8          10.4340     4.9690     1.1440 ch         1 1BB       0.220500
     31 N9          10.8770     5.9220     1.5700 n1         1 1BB      -0.372800
     32 H1           1.8810     0.0390     2.1390 ha         1 1BB       0.122000
     33 H2           4.3470     0.0010    -2.1490 ha         1 1BB       0.107000
     34 H3           1.8800     0.0330    -2.1370 ha         1 1BB       0.117000
     35 H4           4.6060     1.0180     2.8570 hc         1 1BB       0.034200
     36 H5           4.0270    -0.5990     3.2050 hc         1 1BB       0.034200
     37 H6           6.2220     0.6670    -1.9130 hn         1 1BB       0.308800
     38 H7           8.4650    -0.5690    -0.4760 h1         1 1BB       0.061700
     39 H8           9.7500     0.1540    -2.5190 hc         1 1BB       0.032700
     40 H9           8.2630     0.8890    -3.1340 hc         1 1BB       0.032700
     41 H10          6.2130    -0.8670     4.4290 hc         1 1BB       0.008033
     42 H11          7.0710     0.4370     3.5960 hc         1 1BB       0.008033
     43 H12          7.6410    -1.2320     3.4500 hc         1 1BB       0.008033
     44 H13          6.4380    -2.8470     1.9910 hc         1 1BB       0.008033
     45 H14          4.8490    -2.4200     1.3400 hc         1 1BB       0.008033
     46 H15          5.0630    -2.6310     3.0830 hc         1 1BB       0.008033
     47 H16         10.2780     0.5550     0.4280 hn         1 1BB       0.286800
     48 H17         11.3760     2.4490     1.3420 h4         1 1BB       0.140000
     49 H18          6.4800    -0.3790    -4.0200 ha         1 1BB       0.104000
     50 H19          5.7010    -2.5450    -4.9050 ha         1 1BB       0.105500
     51 H20          6.9730    -4.6020    -4.4230 ha         1 1BB       0.106000
     52 H21          9.0250    -4.4920    -3.0590 ha         1 1BB       0.105500
     53 H22          9.8090    -2.3250    -2.1840 ha         1 1BB       0.104000
@<TRIPOS>BOND
     1     1     2 1   
     2     2     3 ar  
     3     2     7 ar  
     4     3     4 ar  
     5     3    32 1   
     6     4     5 ar  
     7     4     8 1   
     8     5     6 ar  
     9     5    11 1   
    10     6     7 ar  
    11     6    33 1   
    12     7    34 1   
    13     8     9 1   
    14     8    35 1   
    15     8    36 1   
    16     9    10 1   
    17     9    15 1   
    18     9    16 1   
    19    10    11 2   
    20    11    12 1   
    21    12    13 1   
    22    12    37 1   
    23    13    14 1   
    24    13    17 1   
    25    13    38 1   
    26    14    24 1   
    27    14    39 1   
    28    14    40 1   
    29    15    41 1   
    30    15    42 1   
    31    15    43 1   
    32    16    44 1   
    33    16    45 1   
    34    16    46 1   
    35    17    18 1   
    36    17    22 2   
    37    18    19 1   
    38    18    47 1   
    39    19    20 2   
    40    19    48 1   
    41    20    21 1   
    42    20    30 1   
    43    21    22 1   
    44    21    23 2   
    45    24    25 ar  
    46    24    29 ar  
    47    25    26 ar  
    48    25    49 1   
    49    26    27 ar  
    50    26    50 1   
    51    27    28 ar  
    52    27    51 1   
    53    28    29 ar  
    54    28    52 1   
    55    29    53 1   
    56    30    31 3   
@<TRIPOS>SUBSTRUCTURE
     1 1BB         1 TEMP              0 ****  ****    0 ROOT
