@<TRIPOS>MOLECULE
1BB
   54    57     1     0     0
SMALL
bcc


@<TRIPOS>ATOM
      1 Cl1         -0.0430    -1.7580    -0.4740 cl         1 1BB      -0.024400
      2 C1           1.6000    -1.3920    -0.3590 ca         1 1BB       0.061400
      3 C2           2.0330    -0.3990     0.5260 ca         1 1BB      -0.118000
      4 C3           3.3930    -0.0940     0.6230 ca         1 1BB      -0.012300
      5 C4           4.3210    -0.7860    -0.1820 ca         1 1BB      -0.223900
      6 C5           3.8810    -1.7860    -1.0560 ca         1 1BB      -0.100000
      7 C6           2.5270    -2.0890    -1.1480 ca         1 1BB      -0.116000
      8 C9           3.8490     0.9810     1.5430 c3         1 1BB      -0.078100
      9 C10          5.3140     0.8210     2.0150 c3         1 1BB       0.148200
     10 N11          6.2090     0.3340     0.9600 n2         1 1BB      -0.558900
     11 C12          5.7330    -0.3870     0.0000 ce         1 1BB       0.570800
     12 N13          6.6560    -0.8590    -1.0760 ny         1 1BB      -0.723000
     13 C14          8.0820    -0.3870    -0.9890 c3         1 1BB       0.106200
     14 C15          8.9480    -1.1020    -2.0410 c3         1 1BB      -0.058100
     15 C27          5.8010     2.2010     2.4930 c3         1 1BB      -0.092600
     16 C28          5.3480    -0.1350     3.2220 c3         1 1BB      -0.092600
     17 C7           8.1910     1.1320    -1.2210 cc         1 1BB       0.634200
     18 N8           9.2370     1.7880    -0.5610 na         1 1BB      -0.703000
     19 C11          9.3860     3.1480    -0.7730 cc         1 1BB       0.134000
     20 C13          8.5370     3.8310    -1.6050 cd         1 1BB      -0.121900
     21 C19          7.4290     3.1130    -2.2840 c          1 1BB       0.707700
     22 N24          7.3410     1.7070    -2.0340 nd         1 1BB      -0.701100
     23 O25          6.6010     3.6460    -3.0280 o          1 1BB      -0.471100
     24 C26          8.8430    -2.5800    -1.9140 ca         1 1BB      -0.161300
     25 C29          9.6240    -3.2670    -0.9780 ca         1 1BB      -0.132500
     26 C30          9.5460    -4.6560    -0.8850 ca         1 1BB      -0.114000
     27 C31          8.6910    -5.3670    -1.7290 ca         1 1BB      -0.097000
     28 C32          7.9150    -4.6860    -2.6690 ca         1 1BB      -0.114000
     29 C33          7.9900    -3.2980    -2.7620 ca         1 1BB      -0.132500
     30 C8           8.6910     5.2170    -1.8290 ch         1 1BB       0.186500
     31 N9           8.8050     6.3590    -2.0230 n1         1 1BB      -0.292800
     32 H1           1.3040     0.1460     1.1490 ha         1 1BB       0.173000
     33 H2           4.5780    -2.3620    -1.6820 ha         1 1BB       0.124000
     34 H3           2.1840    -2.8750    -1.8410 ha         1 1BB       0.171000
     35 H4           3.1900     1.0160     2.4520 hc         1 1BB       0.090700
     36 H5           3.7350     1.9680     1.0130 hc         1 1BB       0.090700
     37 H6           6.2460    -0.5510    -1.9730 hn         1 1BB       0.478800
     38 H7           8.4550    -0.6570     0.0460 hx         1 1BB       0.124700
     39 H8           8.6540    -0.7710    -3.0750 hc         1 1BB       0.097700
     40 H9          10.0100    -0.7720    -1.8750 hc         1 1BB       0.097700
     41 H10          6.8210     2.1250     2.9370 hc         1 1BB       0.059367
     42 H11          5.0940     2.5700     3.2750 hc         1 1BB       0.059367
     43 H12          5.8210     2.9360     1.6540 hc         1 1BB       0.059367
     44 H13          4.9150    -1.1270     2.9540 hc         1 1BB       0.059367
     45 H14          4.7410     0.3110     4.0470 hc         1 1BB       0.059367
     46 H15          6.3920    -0.2750     3.5890 hc         1 1BB       0.059367
     47 H16          9.8220     1.3100     0.0840 hn         1 1BB       0.472800
     48 H17         10.2260     3.6340    -0.2380 h4         1 1BB       0.192000
     49 H18         10.3160    -2.7140    -0.3240 ha         1 1BB       0.136500
     50 H19         10.1690    -5.1930    -0.1520 ha         1 1BB       0.156000
     51 H20          8.6380    -6.4660    -1.6620 ha         1 1BB       0.159000
     52 H21          7.2560    -5.2480    -3.3490 ha         1 1BB       0.156000
     53 H22          7.4080    -2.7720    -3.5350 ha         1 1BB       0.136500
     54 H132         6.6700    -1.8910    -1.0550 hn         1 1BB       0.478800
@<TRIPOS>BOND
     1     1     2 1   
     2     2     3 ar  
     3     2     7 ar  
     4     3     4 ar  
     5     3    32 1   
     6     4     5 ar  
     7     4     8 1   
     8     5     6 ar  
     9     5    11 1   
    10     6     7 ar  
    11     6    33 1   
    12     7    34 1   
    13     8     9 1   
    14     8    35 1   
    15     8    36 1   
    16     9    10 1   
    17     9    15 1   
    18     9    16 1   
    19    10    11 2   
    20    11    12 1   
    21    12    13 1   
    22    12    37 1   
    23    12    54 1   
    24    13    14 1   
    25    13    17 1   
    26    13    38 1   
    27    14    24 1   
    28    14    39 1   
    29    14    40 1   
    30    15    41 1   
    31    15    42 1   
    32    15    43 1   
    33    16    44 1   
    34    16    45 1   
    35    16    46 1   
    36    17    18 1   
    37    17    22 2   
    38    18    19 1   
    39    18    47 1   
    40    19    20 2   
    41    19    48 1   
    42    20    21 1   
    43    20    30 1   
    44    21    22 1   
    45    21    23 2   
    46    24    25 ar  
    47    24    29 ar  
    48    25    26 ar  
    49    25    49 1   
    50    26    27 ar  
    51    26    50 1   
    52    27    28 ar  
    53    27    51 1   
    54    28    29 ar  
    55    28    52 1   
    56    29    53 1   
    57    30    31 3   
@<TRIPOS>SUBSTRUCTURE
     1 1BB         1 TEMP              0 ****  ****    0 ROOT
