@<TRIPOS>MOLECULE
1BC
   65    69     1     0     0
SMALL
bcc


@<TRIPOS>ATOM
      1 Cl1          0.0000     0.0000     0.0000 cl         1 1BC      -0.031400
      2 C1           1.7360     0.0000     0.0000 ca         1 1BC      -0.016600
      3 C6           2.4230     0.0000     1.2020 ca         1 1BC      -0.116000
      4 C5           3.8040     0.0020     1.2050 ca         1 1BC      -0.039000
      5 C4           4.4980     0.0050    -0.0020 ca         1 1BC      -0.136900
      6 C12          5.9840     0.0250    -0.0030 ce         1 1BC       0.558800
      7 N11          6.6050    -0.1250    -1.2390 nu         1 1BC      -0.565200
      8 C10          5.9490     0.5400    -2.3780 c3         1 1BC       0.139200
      9 C28          6.7460     0.2680    -3.6560 c3         1 1BC      -0.028600
     10 C27          5.8870     2.0480    -2.1250 c3         1 1BC      -0.028600
     11 C9           4.5330    -0.0130    -2.5290 c3         1 1BC       0.017900
     12 C3           3.8060    -0.0010    -1.2120 ca         1 1BC      -0.053300
     13 C2           2.4240    -0.0060    -1.2000 ca         1 1BC      -0.114000
     14 N13          6.6690     0.1760     1.0940 n2         1 1BC      -0.587900
     15 C14          8.1330     0.1910     1.0480 c3         1 1BC       0.098200
     16 C15          8.6470     1.5280     1.5880 c3         1 1BC       0.038900
     17 C11          8.2090     2.6410     0.6720 cc         1 1BC      -0.122300
     18 C13          8.9720     3.0640    -0.4130 cc         1 1BC       0.006000
     19 C16          8.4270     4.0680    -1.1210 cd         1 1BC      -0.019100
     20 S17          6.8830     4.5190    -0.4110 ss         1 1BC      -0.282800
     21 C18          7.0580     3.2910     0.8350 cd         1 1BC       0.047600
     22 C19          6.0560     3.0160     1.9260 c3         1 1BC       0.024900
     23 C20          6.3780     3.8820     3.1460 c3         1 1BC      -0.026400
     24 C21          5.3610     3.6030     4.2530 c3         1 1BC       0.004900
     25 C23         10.2830     2.4560    -0.7590 cc         1 1BC      -0.252300
     26 C24         10.6640     2.0070    -1.9890 cd         1 1BC      -0.263300
     27 N25         11.9210     1.5300    -1.8790 na         1 1BC       0.451400
     28 N26         12.3330     1.6850    -0.5490 nd         1 1BC      -0.662800
     29 C29         11.3600     2.2430     0.1230 cc         1 1BC       0.414200
     30 C30          8.6730    -0.9330     1.8930 ce         1 1BC       0.629300
     31 N31          7.8090    -1.7570     2.4160 nf         1 1BC      -0.575100
     32 C32          8.1900    -2.7910     3.1850 c          1 1BC       0.698500
     33 C33          9.6810    -2.9590     3.4190 c3         1 1BC      -0.264700
     34 C34         10.5750    -1.9300     2.7520 c2         1 1BC       0.493200
     35 N35          9.9980    -1.0050     2.0400 ne         1 1BC      -0.628000
     36 O36          7.3800    -3.5550     3.6700 o          1 1BC      -0.527100
     37 H1           1.8800    -0.0670     2.1370 ha         1 1BC       0.118000
     38 H2           4.3450     0.0020     2.1440 ha         1 1BC       0.136000
     39 H3           7.4460    -0.6560    -1.3480 hn         1 1BC       0.309800
     40 H4           7.7410     0.6830    -3.5560 hc         1 1BC       0.019033
     41 H5           6.2450     0.7300    -4.4990 hc         1 1BC       0.019033
     42 H6           6.8140    -0.8010    -3.8180 hc         1 1BC       0.019033
     43 H7           6.8800     2.4700    -2.2140 hc         1 1BC       0.019033
     44 H8           5.5040     2.2310    -1.1290 hc         1 1BC       0.019033
     45 H9           5.2320     2.5100    -2.8540 hc         1 1BC       0.019033
     46 H10          4.5990    -1.0370    -2.8760 hc         1 1BC       0.033200
     47 H11          3.9910     0.6160    -3.2250 hc         1 1BC       0.033200
     48 H12          1.8770    -0.0120    -2.1350 ha         1 1BC       0.117000
     49 H13          8.4640     0.0640     0.0250 h1         1 1BC       0.031700
     50 H14          8.2450     1.6960     2.5790 hc         1 1BC       0.042700
     51 H15          9.7290     1.5050     1.6360 hc         1 1BC       0.042700
     52 H16          8.8720     4.5290    -1.9940 h4         1 1BC       0.151000
     53 H17          5.0600     3.2520     1.5690 hc         1 1BC       0.048700
     54 H18          6.1020     1.9700     2.2030 hc         1 1BC       0.048700
     55 H19          7.3740     3.6470     3.5020 hc         1 1BC       0.015200
     56 H20          6.3320     4.9280     2.8690 hc         1 1BC       0.015200
     57 H21          5.5120     4.3020     5.0670 hc         1 1BC       0.002033
     58 H22          4.3580     3.7180     3.8600 hc         1 1BC       0.002033
     59 H23          5.4920     2.5910     4.6180 hc         1 1BC       0.002033
     60 H24         10.0650     2.0300    -2.8920 h4         1 1BC       0.146000
     61 H25         12.4650     1.1320    -2.6190 hn         1 1BC       0.146700
     62 H26         11.3760     2.4920     1.1770 h4         1 1BC       0.013100
     63 H27          9.8160    -2.7990     4.4820 hc         1 1BC       0.073200
     64 H28          9.9340    -3.8990     2.9430 hc         1 1BC       0.073200
     65 H29         11.6310    -2.1330     2.6230 h4         1 1BC       0.000800
@<TRIPOS>BOND
     1     1     2 1   
     2     2     3 ar  
     3     2    13 ar  
     4     3     4 ar  
     5     3    37 1   
     6     4     5 ar  
     7     4    38 1   
     8     5     6 1   
     9     5    12 ar  
    10     6     7 1   
    11     6    14 2   
    12     7     8 1   
    13     7    39 1   
    14     8     9 1   
    15     8    10 1   
    16     8    11 1   
    17     9    40 1   
    18     9    41 1   
    19     9    42 1   
    20    10    43 1   
    21    10    44 1   
    22    10    45 1   
    23    11    12 1   
    24    11    46 1   
    25    11    47 1   
    26    12    13 ar  
    27    13    48 1   
    28    14    15 1   
    29    15    16 1   
    30    15    30 1   
    31    15    49 1   
    32    16    17 1   
    33    16    50 1   
    34    16    51 1   
    35    17    18 1   
    36    17    21 2   
    37    18    19 2   
    38    18    25 1   
    39    19    20 1   
    40    19    52 1   
    41    20    21 1   
    42    21    22 1   
    43    22    23 1   
    44    22    53 1   
    45    22    54 1   
    46    23    24 1   
    47    23    55 1   
    48    23    56 1   
    49    24    57 1   
    50    24    58 1   
    51    24    59 1   
    52    25    26 2   
    53    25    29 1   
    54    26    27 1   
    55    26    60 1   
    56    27    28 1   
    57    27    61 1   
    58    28    29 2   
    59    29    62 1   
    60    30    31 2   
    61    30    35 1   
    62    31    32 1   
    63    32    33 1   
    64    32    36 2   
    65    33    34 1   
    66    33    63 1   
    67    33    64 1   
    68    34    35 2   
    69    34    65 1   
@<TRIPOS>SUBSTRUCTURE
     1 1BC         1 TEMP              0 ****  ****    0 ROOT
