@<TRIPOS>MOLECULE
1BC
   65    69     1     0     0
SMALL
bcc


@<TRIPOS>ATOM
      1 Cl1          0.1880    -1.5730    -0.4700 cl         1 1BC      -0.093400
      2 C1           1.8090    -1.0790    -0.3370 ca         1 1BC       0.032400
      3 C6           2.4780    -1.2060     0.8840 ca         1 1BC      -0.143000
      4 C5           3.8080    -0.8050     0.9860 ca         1 1BC      -0.067000
      5 C4           4.4790    -0.2770    -0.1240 ca         1 1BC      -0.132900
      6 C12          5.9170     0.1350    -0.0250 ce         1 1BC       0.695800
      7 N11          6.4420     0.8920    -1.0950 nu         1 1BC      -0.848200
      8 C10          5.5610     1.4610    -2.1080 c3         1 1BC       0.227200
      9 C28          6.3770     1.8170    -3.3650 c3         1 1BC      -0.111600
     10 C27          4.8570     2.7480    -1.6390 c3         1 1BC      -0.111600
     11 C9           4.4840     0.4380    -2.5260 c3         1 1BC      -0.040100
     12 C3           3.7940    -0.1370    -1.3440 ca         1 1BC      -0.049300
     13 C2           2.4620    -0.5440    -1.4500 ca         1 1BC      -0.139000
     14 N13          6.5940    -0.3140     1.0000 n2         1 1BC      -0.672900
     15 C14          7.9910    -0.0420     1.2220 c3         1 1BC       0.130200
     16 C15          8.2980     1.2570     1.9970 c3         1 1BC      -0.026100
     17 C11          8.2870     2.4620     1.1430 cc         1 1BC      -0.107300
     18 C13          7.3220     3.5280     1.2760 cc         1 1BC      -0.010000
     19 C16          7.5760     4.5470     0.3740 cd         1 1BC      -0.186100
     20 S17          8.9190     4.2460    -0.5560 ss         1 1BC       0.025200
     21 C18          9.2220     2.7530     0.1590 cd         1 1BC      -0.118400
     22 C19         10.3500     1.8970    -0.2460 c3         1 1BC      -0.014100
     23 C20         11.5390     2.6910    -0.7560 c3         1 1BC      -0.083400
     24 C21         12.6300     1.7780    -1.2520 c3         1 1BC      -0.093100
     25 C23          6.2420     3.5520     2.2150 cc         1 1BC      -0.196300
     26 C24          4.8820     3.8060     1.9500 cd         1 1BC      -0.135300
     27 N25          4.2300     3.7660     3.1810 na         1 1BC      -0.020600
     28 N26          5.0620     3.5050     4.1910 nd         1 1BC      -0.512800
     29 C29          6.3010     3.3680     3.6550 cc         1 1BC       0.318200
     30 C30          8.5300    -1.2500     2.0390 ce         1 1BC       0.684300
     31 N31          8.4090    -1.2700     3.3410 nf         1 1BC      -0.645100
     32 C32          8.8690    -2.4150     4.0560 c          1 1BC       0.681500
     33 C33          9.3810    -3.6220     3.2830 c3         1 1BC      -0.312700
     34 C34          9.4760    -3.3640     1.8150 c2         1 1BC       0.469200
     35 N35          9.0990    -2.2820     1.2170 ne         1 1BC      -0.686000
     36 O36          8.8430    -2.4360     5.2920 o          1 1BC      -0.502100
     37 H1           1.9620    -1.6240     1.7620 ha         1 1BC       0.151000
     38 H2           4.3250    -0.9120     1.9550 ha         1 1BC       0.171000
     39 H3           7.2080     1.4920    -0.8630 hn         1 1BC       0.419800
     40 H4           7.1130     2.6240    -3.1400 hc         1 1BC       0.044033
     41 H5           6.9250     0.9240    -3.7510 hc         1 1BC       0.044033
     42 H6           5.6790     2.1790    -4.1580 hc         1 1BC       0.044033
     43 H7           4.2870     3.1920    -2.4880 hc         1 1BC       0.044033
     44 H8           5.6030     3.4970    -1.2760 hc         1 1BC       0.044033
     45 H9           4.1460     2.5200    -0.8090 hc         1 1BC       0.044033
     46 H10          4.9650    -0.3930    -3.1110 hc         1 1BC       0.065700
     47 H11          3.7500     0.9500    -3.2030 hc         1 1BC       0.065700
     48 H12          1.9320    -0.4400    -2.4090 ha         1 1BC       0.147000
     49 H13          8.5910    -0.0090     0.2590 h1         1 1BC       0.064700
     50 H14          7.5690     1.3730     2.8440 hc         1 1BC       0.078200
     51 H15          9.3250     1.1570     2.4480 hc         1 1BC       0.078200
     52 H16          6.9880     5.4600     0.2880 h4         1 1BC       0.174000
     53 H17         10.6750     1.2660     0.6270 hc         1 1BC       0.058200
     54 H18         10.0070     1.1870    -1.0500 hc         1 1BC       0.058200
     55 H19         11.9360     3.3410     0.0670 hc         1 1BC       0.044200
     56 H20         11.2090     3.3710    -1.5880 hc         1 1BC       0.044200
     57 H21         13.5010     2.3770    -1.6130 hc         1 1BC       0.036033
     58 H22         12.2640     1.1430    -2.0940 hc         1 1BC       0.036033
     59 H23         12.9820     1.1040    -0.4330 hc         1 1BC       0.036033
     60 H24          4.3620     3.9930     1.0110 h4         1 1BC       0.177000
     61 H25          3.2570     3.8710     3.3470 hn         1 1BC       0.321700
     62 H26          7.1810     3.1560     4.2640 h4         1 1BC       0.051100
     63 H27          8.6870    -4.4870     3.4690 hc         1 1BC       0.108700
     64 H28         10.3890    -3.9100     3.6860 hc         1 1BC       0.108700
     65 H29          9.9060    -4.1740     1.1930 h4         1 1BC       0.032800
@<TRIPOS>BOND
     1     1     2 1   
     2     2     3 ar  
     3     2    13 ar  
     4     3     4 ar  
     5     3    37 1   
     6     4     5 ar  
     7     4    38 1   
     8     5     6 1   
     9     5    12 ar  
    10     6     7 1   
    11     6    14 2   
    12     7     8 1   
    13     7    39 1   
    14     8     9 1   
    15     8    10 1   
    16     8    11 1   
    17     9    40 1   
    18     9    41 1   
    19     9    42 1   
    20    10    43 1   
    21    10    44 1   
    22    10    45 1   
    23    11    12 1   
    24    11    46 1   
    25    11    47 1   
    26    12    13 ar  
    27    13    48 1   
    28    14    15 1   
    29    15    16 1   
    30    15    30 1   
    31    15    49 1   
    32    16    17 1   
    33    16    50 1   
    34    16    51 1   
    35    17    18 1   
    36    17    21 2   
    37    18    19 2   
    38    18    25 1   
    39    19    20 1   
    40    19    52 1   
    41    20    21 1   
    42    21    22 1   
    43    22    23 1   
    44    22    53 1   
    45    22    54 1   
    46    23    24 1   
    47    23    55 1   
    48    23    56 1   
    49    24    57 1   
    50    24    58 1   
    51    24    59 1   
    52    25    26 2   
    53    25    29 1   
    54    26    27 1   
    55    26    60 1   
    56    27    28 1   
    57    27    61 1   
    58    28    29 2   
    59    29    62 1   
    60    30    31 2   
    61    30    35 1   
    62    31    32 1   
    63    32    33 1   
    64    32    36 2   
    65    33    34 1   
    66    33    63 1   
    67    33    64 1   
    68    34    35 2   
    69    34    65 1   
@<TRIPOS>SUBSTRUCTURE
     1 1BC         1 TEMP              0 ****  ****    0 ROOT
