@<TRIPOS>MOLECULE
1BD
   27    27     1     0     0
SMALL
bcc


@<TRIPOS>ATOM
      1 C1           0.0810     0.4840     0.1680 ca         1 1BD      -0.106000
      2 C2           1.4710     0.5240     0.1460 ca         1 1BD      -0.115000
      3 C3           2.2190     0.1860     1.2880 ca         1 1BD      -0.031900
      4 C4           1.5300    -0.1920     2.4540 ca         1 1BD      -0.170300
      5 C5           0.1320    -0.2270     2.4690 ca         1 1BD      -0.094000
      6 C6          -0.5930     0.1080     1.3310 ca         1 1BD      -0.150000
      7 C7           3.6830     0.2480     1.2690 ce         1 1BD       0.305800
      8 N8           4.3540     0.2060     0.1440 n2         1 1BD      -0.363200
      9 O9           5.6490     0.2700     0.2600 os         1 1BD      -0.203300
     10 C10          6.3900     0.2910    -1.0130 c3         1 1BD       0.169400
     11 C11          6.1510     1.5480    -1.7990 c3         1 1BD      -0.235400
     12 C12          7.2230     1.7040    -2.9010 c          1 1BD       0.915600
     13 O13          8.3200     1.0930    -2.7580 o          1 1BD      -0.842800
     14 O14          6.9390     2.4470    -3.8810 o          1 1BD      -0.842800
     15 C15          2.2680    -0.5690     3.7340 c3         1 1BD       0.689200
     16 F16          3.1970    -1.5720     3.6020 f          1 1BD      -0.241967
     17 F17          1.4590    -1.0230     4.7520 f          1 1BD      -0.241967
     18 F18          2.9640     0.4600     4.3240 f          1 1BD      -0.241967
     19 H1          -0.4870     0.7510    -0.7360 ha         1 1BD       0.135000
     20 H2           1.9930     0.8250    -0.7770 ha         1 1BD       0.169000
     21 H5          -0.3970    -0.5250     3.3890 ha         1 1BD       0.142000
     22 H6          -1.6920     0.0770     1.3500 ha         1 1BD       0.131000
     23 H7           4.1770     0.3290     2.2580 h4         1 1BD       0.008800
     24 H10          7.4480     0.2380    -0.6370 h1         1 1BD       0.068700
     25 H10A         6.1400    -0.6260    -1.6010 h1         1 1BD       0.068700
     26 H11          5.1400     1.5400    -2.2730 hc         1 1BD       0.039200
     27 H11A         6.2130     2.4420    -1.1300 hc         1 1BD       0.039200
@<TRIPOS>BOND
     1     1     2 ar  
     2     1     6 ar  
     3     1    19 1   
     4     2     3 ar  
     5     2    20 1   
     6     3     4 ar  
     7     3     7 1   
     8     4     5 ar  
     9     4    15 1   
    10     5     6 ar  
    11     5    21 1   
    12     6    22 1   
    13     7     8 2   
    14     7    23 1   
    15     8     9 1   
    16     9    10 1   
    17    10    11 1   
    18    10    24 1   
    19    10    25 1   
    20    11    12 1   
    21    11    26 1   
    22    11    27 1   
    23    12    13 1   
    24    12    14 1   
    25    15    16 1   
    26    15    17 1   
    27    15    18 1   
@<TRIPOS>SUBSTRUCTURE
     1 1BD         1 TEMP              0 ****  ****    0 ROOT
