@<TRIPOS>MOLECULE
1BD
   27    28     1     0     0
SMALL
bcc


@<TRIPOS>ATOM
      1 C1           0.0000     0.0000     0.0000 c2         1 1BD      -0.090000
      2 C2           1.3800     0.0000     0.0000 c2         1 1BD      -0.052000
      3 C3           2.0750     0.0000     1.2100 c3         1 1BD      -0.058000
      4 C4           1.3670     0.0000     2.4140 c2         1 1BD      -0.222000
      5 C5          -0.0120     0.0000     2.4000 c2         1 1BD      -0.053000
      6 C6          -0.6940     0.0000     1.1960 c2         1 1BD      -0.109000
      7 C7           3.5510    -0.0000     1.2180 c2         1 1BD      -0.418000
      8 N8           4.1930    -0.0000     2.3420 n2         1 1BD       0.138000
      9 O9           5.6080    -0.0000     2.3490 os         1 1BD      -0.157000
     10 C10          6.1830     0.0000     3.6570 c3         1 1BD       0.045000
     11 C11          7.7090    -0.0000     3.5440 c3         1 1BD      -0.163000
     12 C12          8.3150     0.0000     4.9240 c2         1 1BD       0.405000
     13 O13          7.5990     0.0010     5.8980 o          1 1BD      -0.631500
     14 O14          9.6490    -0.0000     5.0710 o          1 1BD      -0.631500
     15 C15          2.1090    -0.0000     3.7260 c3         1 1BD       0.437000
     16 F16          2.9130     1.1420     3.8070 f          1 1BD      -0.134667
     17 F17          1.1910     0.0000     4.7810 f          1 1BD      -0.134667
     18 F18          2.9130    -1.1430     3.8070 f          1 1BD      -0.134667
     19 H1          -0.5410    -0.0000    -0.9390 ha         1 1BD       0.102000
     20 H2           1.9220    -0.0000    -0.9380 ha         1 1BD       0.126000
     21 H5          -0.5620    -0.0000     3.3330 ha         1 1BD       0.119000
     22 H6          -1.7780    -0.0000     1.1910 ha         1 1BD       0.103000
     23 H7           2.9380     0.8740     1.4020 DU         1 1BD       0.288000
     24 H10          5.8600    -0.8850     4.1930 h1         1 1BD       0.059000
     25 H10A         5.8600     0.8850     4.1930 h1         1 1BD       0.059000
     26 H11          8.0310    -0.8850     3.0090 hc         1 1BD       0.054000
     27 H11A         8.0310     0.8850     3.0090 hc         1 1BD       0.054000
@<TRIPOS>BOND
     1     1     2 1   
     2     1     6 1   
     3     1    19 1   
     4     2     3 1   
     5     2    20 1   
     6     3     4 1   
     7     3     7 1   
     8     3    23 1   
     9     4     5 1   
    10     4    15 1   
    11     5     6 1   
    12     5    21 1   
    13     6    22 1   
    14     7     8 1   
    15     7    23 1   
    16     8     9 1   
    17     9    10 1   
    18    10    11 1   
    19    10    24 1   
    20    10    25 1   
    21    11    12 1   
    22    11    26 1   
    23    11    27 1   
    24    12    13 1   
    25    12    14 1   
    26    15    16 1   
    27    15    17 1   
    28    15    18 1   
@<TRIPOS>SUBSTRUCTURE
     1 1BD         1 TEMP              0 ****  ****    0 ROOT
