@<TRIPOS>MOLECULE
molecule
   27    27     1     0     0
SMALL
bcc


@<TRIPOS>ATOM
      1 C1           0.0000     0.0000     0.0000 ca         1 1BD      -0.112000
      2 C2           1.3800     0.0000     0.0000 ca         1 1BD      -0.126000
      3 C3           2.0750     0.0000     1.2100 ca         1 1BD      -0.052900
      4 C4           1.3670     0.0000     2.4140 ca         1 1BD      -0.159300
      5 C5          -0.0120     0.0000     2.4000 ca         1 1BD      -0.089000
      6 C6          -0.6940     0.0000     1.1960 ca         1 1BD      -0.143000
      7 C7           3.5510    -0.0000     1.2180 ce         1 1BD       0.355800
      8 N8           4.1930    -0.0000     2.3420 n2         1 1BD      -0.396200
      9 O9           5.6080    -0.0000     2.3490 os         1 1BD      -0.203300
     10 C10          6.1830     0.0000     3.6570 c3         1 1BD       0.144400
     11 C11          7.7090    -0.0000     3.5440 c3         1 1BD      -0.181400
     12 C12          8.3150     0.0000     4.9240 c          1 1BD       0.896600
     13 O13          7.5990     0.0010     5.8980 o          1 1BD      -0.847300
     14 O14          9.6490    -0.0000     5.0710 o          1 1BD      -0.847300
     15 C15          2.1090    -0.0000     3.7260 c3         1 1BD       0.688200
     16 F16          2.9130     1.1420     3.8070 f          1 1BD      -0.214967
     17 F17          1.1910     0.0000     4.7810 f          1 1BD      -0.214967
     18 F18          2.9130    -1.1430     3.8070 f          1 1BD      -0.214967
     19 H1          -0.5410     0.0000    -0.9390 ha         1 1BD       0.127000
     20 H2           1.9220     0.0000    -0.9380 ha         1 1BD       0.137000
     21 H5          -0.5620     0.0000     3.3330 ha         1 1BD       0.147000
     22 H6          -1.7780     0.0000     1.1910 ha         1 1BD       0.128000
     23 H7           4.0970    -0.0000     0.2830 h4         1 1BD       0.000800
     24 H10          5.8600    -0.8850     4.1930 h1         1 1BD       0.049700
     25 H10A         5.8600     0.8850     4.1930 h1         1 1BD       0.049700
     26 H11          8.0310     0.8850     3.0090 hc         1 1BD       0.038700
     27 H11A         8.0310    -0.8850     3.0090 hc         1 1BD       0.038700
@<TRIPOS>BOND
     1     2     1 ar  
     2     1     6 ar  
     3     1    19 1   
     4     3     2 ar  
     5     2    20 1   
     6     7     3 1   
     7     3     4 ar  
     8    15     4 1   
     9     4     5 ar  
    10     5     6 ar  
    11     5    21 1   
    12     6    22 1   
    13     8     7 2   
    14     7    23 1   
    15     9     8 1   
    16    10     9 1   
    17    11    10 1   
    18    10    24 1   
    19    10    25 1   
    20    12    11 1   
    21    11    26 1   
    22    11    27 1   
    23    13    12 1   
    24    14    12 1   
    25    16    15 1   
    26    18    15 1   
    27    15    17 1   
@<TRIPOS>SUBSTRUCTURE
     1 1BD         1 TEMP              0 ****  ****    0 ROOT
