@<TRIPOS>MOLECULE
1BE
   59    62     1     0     0
SMALL
bcc


@<TRIPOS>ATOM
      1 Cl1          3.6890    -4.3010    -2.1620 cl         1 1BE      -0.073400
      2 C1           4.1700    -2.8040    -1.5270 ca         1 1BE       0.047400
      3 C6           4.2340    -2.6190    -0.1430 ca         1 1BE      -0.123000
      4 C5           4.6310    -1.3870     0.3760 ca         1 1BE      -0.081000
      5 C4           4.9690    -0.3390    -0.4840 ca         1 1BE      -0.205900
      6 C12          5.3730     1.0150    -0.0370 ce         1 1BE       0.579800
      7 N11          5.3970     2.0740    -0.7880 n2         1 1BE      -0.569900
      8 C10          5.0190     1.9810    -2.1970 c3         1 1BE       0.146200
      9 C28          3.5340     2.3480    -2.3790 c3         1 1BE      -0.087600
     10 C27          5.8510     2.9880    -3.0110 c3         1 1BE      -0.087600
     11 C9           5.2600     0.5800    -2.8050 c3         1 1BE      -0.069100
     12 C3           4.8930    -0.5250    -1.8810 ca         1 1BE      -0.038300
     13 C2           4.4980    -1.7590    -2.3980 ca         1 1BE      -0.137000
     14 N13          5.7700     1.1850     1.3810 ny         1 1BE      -0.724000
     15 C14          7.0370     0.4630     1.7460 c3         1 1BE      -0.041500
     16 C15          8.0980     1.3870     2.3370 c3         1 1BE      -0.024100
     17 C7           6.7280    -0.6470     2.8540 c          1 1BE       0.925600
     18 O8           7.6820    -1.3900     3.1410 o          1 1BE      -0.768800
     19 O9           5.5510    -0.6480     3.3110 o          1 1BE      -0.768800
     20 C11          8.4760     2.5190     1.4720 cc         1 1BE      -0.135300
     21 C13          7.8690     3.8260     1.5490 cc         1 1BE      -0.034000
     22 C16          8.4370     4.6930     0.6340 cd         1 1BE      -0.165100
     23 S17          9.6390     3.9670    -0.2540 ss         1 1BE       0.046200
     24 C18          9.4720     2.4800     0.5090 cd         1 1BE      -0.093400
     25 C19         10.3040     1.3040     0.2030 c3         1 1BE      -0.016100
     26 C20         11.1630     1.4870    -1.0340 c3         1 1BE      -0.085400
     27 C21         12.0440     0.2870    -1.2660 c3         1 1BE      -0.093100
     28 C23          6.8100     4.1790     2.4470 cc         1 1BE      -0.223300
     29 C24          6.7650     4.0710     3.8520 cd         1 1BE      -0.119300
     30 N25          5.5270     4.5820     4.2410 na         1 1BE      -0.015600
     31 N26          4.7970     5.0000     3.2060 nd         1 1BE      -0.513800
     32 C29          5.5370     4.7810     2.0900 cc         1 1BE       0.291200
     33 H1           3.9810    -3.4420     0.5450 ha         1 1BE       0.168000
     34 H2           4.6800    -1.2840     1.4800 ha         1 1BE       0.200000
     35 H3           2.8780     1.5910    -1.8870 hc         1 1BE       0.050200
     36 H4           3.2990     2.3720    -3.4700 hc         1 1BE       0.050200
     37 H5           3.3190     3.3550    -1.9480 hc         1 1BE       0.050200
     38 H6           5.6410     4.0310    -2.6750 hc         1 1BE       0.050200
     39 H7           6.9430     2.7880    -2.9020 hc         1 1BE       0.050200
     40 H8           5.5720     2.8910    -4.0870 hc         1 1BE       0.050200
     41 H9           4.6750     0.5010    -3.7590 hc         1 1BE       0.071700
     42 H10          6.3480     0.4730    -3.0700 hc         1 1BE       0.071700
     43 H11          4.4450    -1.9060    -3.4880 ha         1 1BE       0.153000
     44 H12          5.8710     2.1870     1.6080 hn         1 1BE       0.473300
     45 H13          7.4330    -0.0530     0.8300 hx         1 1BE       0.096700
     46 H14          8.9920     0.7280     2.5350 hc         1 1BE       0.086700
     47 H15          7.7430     1.7690     3.3330 hc         1 1BE       0.086700
     48 H17          8.1480     5.7360     0.5030 h4         1 1BE       0.176000
     49 H18         10.9660     1.0840     1.0880 hc         1 1BE       0.064200
     50 H19          9.6420     0.4040     0.0670 hc         1 1BE       0.064200
     51 H20         10.5040     1.6490    -1.9280 hc         1 1BE       0.041200
     52 H21         11.7990     2.4050    -0.9180 hc         1 1BE       0.041200
     53 H22         12.7310     0.1290    -0.4000 hc         1 1BE       0.038033
     54 H23         12.6620     0.4330    -2.1850 hc         1 1BE       0.038033
     55 H24         11.4280    -0.6350    -1.3960 hc         1 1BE       0.038033
     56 H25          7.4950     3.6920     4.5670 h4         1 1BE       0.192000
     57 H26          5.1680     4.6390     5.1660 hn         1 1BE       0.329700
     58 H27          5.1880     5.0430     1.0910 h4         1 1BE       0.051100
     59 H132         5.0190     0.7750     1.9830 hn         1 1BE       0.473300
@<TRIPOS>BOND
     1     1     2 1   
     2     2     3 ar  
     3     2    13 ar  
     4     3     4 ar  
     5     3    33 1   
     6     4     5 ar  
     7     4    34 1   
     8     5     6 1   
     9     5    12 ar  
    10     6     7 2   
    11     6    14 1   
    12     7     8 1   
    13     8     9 1   
    14     8    10 1   
    15     8    11 1   
    16     9    35 1   
    17     9    36 1   
    18     9    37 1   
    19    10    38 1   
    20    10    39 1   
    21    10    40 1   
    22    11    12 1   
    23    11    41 1   
    24    11    42 1   
    25    12    13 ar  
    26    13    43 1   
    27    14    15 1   
    28    14    44 1   
    29    14    59 1   
    30    15    16 1   
    31    15    17 1   
    32    15    45 1   
    33    16    20 1   
    34    16    46 1   
    35    16    47 1   
    36    17    18 1   
    37    17    19 1   
    38    20    21 1   
    39    20    24 2   
    40    21    22 2   
    41    21    28 1   
    42    22    23 1   
    43    22    48 1   
    44    23    24 1   
    45    24    25 1   
    46    25    26 1   
    47    25    49 1   
    48    25    50 1   
    49    26    27 1   
    50    26    51 1   
    51    26    52 1   
    52    27    53 1   
    53    27    54 1   
    54    27    55 1   
    55    28    29 2   
    56    28    32 1   
    57    29    30 1   
    58    29    56 1   
    59    30    31 1   
    60    30    57 1   
    61    31    32 2   
    62    32    58 1   
@<TRIPOS>SUBSTRUCTURE
     1 1BE         1 TEMP              0 ****  ****    0 ROOT
