@<TRIPOS>MOLECULE
molecule
   58    61     1     0     0
SMALL
bcc


@<TRIPOS>ATOM
      1 Cl1          0.0000     0.0000     0.0000 cl         1 1BE      -0.138400
      2 C1           1.7360     0.0000     0.0000 ca         1 1BE       0.014400
      3 C6           2.4250     0.0000     1.2010 ca         1 1BE      -0.137000
      4 C5           3.8060     0.0010     1.2100 ca         1 1BE      -0.099000
      5 C4           4.5000    -0.0010     0.0050 ca         1 1BE      -0.151900
      6 C12          5.9800    -0.0040    -0.0320 ce         1 1BE       0.707800
      7 N11          6.5960     0.3570    -1.1190 n2         1 1BE      -0.715900
      8 C10          5.8730     0.7950    -2.3080 c3         1 1BE       0.166200
      9 C28          5.5340     2.2800    -2.1700 c3         1 1BE      -0.079100
     10 C27          6.7630     0.5950    -3.5380 c3         1 1BE      -0.079100
     11 C9           4.5810     0.0010    -2.4930 c3         1 1BE      -0.058100
     12 C3           3.8010     0.0000    -1.2050 ca         1 1BE      -0.031300
     13 C2           2.4250    -0.0050    -1.2040 ca         1 1BE      -0.131000
     14 N13          6.7010    -0.3850     1.0800 nu         1 1BE      -0.825200
     15 C14          8.1650    -0.3860     1.0380 c3         1 1BE       0.131500
     16 C15          8.7090     0.4020     2.2310 c3         1 1BE      -0.023100
     17 C7           8.6680    -1.8060     1.1020 c          1 1BE       0.881600
     18 O8           7.8840    -2.7220     1.1750 o          1 1BE      -0.838800
     19 O9           9.9870    -2.0520     1.0780 o          1 1BE      -0.838800
     20 C11          8.3180     1.8500     2.0960 cd         1 1BE      -0.072300
     21 C13          9.0560     2.7590     1.3430 cd         1 1BE       0.004000
     22 C16          8.5610     4.0090     1.3340 cc         1 1BE      -0.086100
     23 S17          7.1000     4.0700     2.3100 ss         1 1BE      -0.238800
     24 C18          7.2360     2.3580     2.6850 cc         1 1BE      -0.025400
     25 C19          6.2730     1.5800     3.5450 c3         1 1BE      -0.001100
     26 C20          6.6470     1.7600     5.0180 c3         1 1BE      -0.083400
     27 C21          5.6690     0.9710     5.8910 c3         1 1BE      -0.095100
     28 C23         10.2910     2.3790     0.6080 cd         1 1BE      -0.239300
     29 C24         10.5670     2.6490    -0.6990 cc         1 1BE      -0.103300
     30 N25         11.7840     2.1350    -0.9750 na         1 1BE      -0.052600
     31 N26         12.2770     1.5310     0.1890 nc         1 1BE      -0.510800
     32 C29         11.3910     1.6780     1.1390 cd         1 1BE       0.370200
     33 H1           1.8790    -0.0010     2.1370 ha         1 1BE       0.134000
     34 H2           4.3410    -0.1250     2.1440 ha         1 1BE       0.143000
     35 H3           4.9170     2.5880    -3.0050 hc         1 1BE       0.032867
     36 H4           4.9960     2.4430    -1.2440 hc         1 1BE       0.032867
     37 H5           6.4490     2.8600    -2.1640 hc         1 1BE       0.032867
     38 H6           7.0740    -0.4410    -3.5940 hc         1 1BE       0.032867
     39 H7           7.6360     1.2310    -3.4590 hc         1 1BE       0.032867
     40 H8           6.2070     0.8530    -4.4310 hc         1 1BE       0.032867
     41 H9           4.8330    -1.0210    -2.7490 hc         1 1BE       0.057700
     42 H10          3.9850     0.4800    -3.2610 hc         1 1BE       0.057700
     43 H11          1.6990    -0.1390    -1.9970 ha         1 1BE       0.141000
     44 H12          6.2240    -0.7250     1.8920 hn         1 1BE       0.433800
     45 H13          8.5000     0.0750     0.1170 h1         1 1BE       0.102700
     46 H14          8.2950    -0.0000     3.1480 hc         1 1BE       0.061700
     47 H15          9.7890     0.3200     2.2560 hc         1 1BE       0.061700
     48 H17          8.9960     4.8490     0.8070 h4         1 1BE       0.158000
     49 H18          5.2670     1.9460     3.3810 hc         1 1BE       0.053200
     50 H19          6.3230     0.5300     3.2850 hc         1 1BE       0.053200
     51 H20          7.6530     1.3940     5.1820 hc         1 1BE       0.045200
     52 H21          6.5970     2.8100     5.2780 hc         1 1BE       0.045200
     53 H22          5.9030     1.1360     6.9360 hc         1 1BE       0.029700
     54 H23          4.6570     1.3030     5.6910 hc         1 1BE       0.029700
     55 H24          5.7530    -0.0850     5.6640 hc         1 1BE       0.029700
     56 H25          9.9250     3.1810    -1.3910 h4         1 1BE       0.166000
     57 H26         12.2520     2.1770    -1.8590 hn         1 1BE       0.318700
     58 H27         11.4850     1.3180     2.1570 h4         1 1BE       0.057100
@<TRIPOS>BOND
     1     1     2 1   
     2     3     2 ar  
     3     3     4 ar  
     4     2    13 ar  
     5     4     5 ar  
     6    30    31 1   
     7    30    29 1   
     8    18    17 1   
     9    13    12 ar  
    10    31    32 2   
    11     5    12 ar  
    12     5     6 1   
    13    29    28 2   
    14    12    11 1   
    15    14     6 1   
    16    14    15 1   
    17    17    15 1   
    18    17    19 1   
    19     6     7 2   
    20    32    28 1   
    21    28    21 1   
    22    15    16 1   
    23    11     8 1   
    24    16    20 1   
    25     7     8 1   
    26    21    20 1   
    27    21    22 2   
    28     8     9 1   
    29     8    10 1   
    30    20    24 2   
    31    22    23 1   
    32    24    25 1   
    33    24    23 1   
    34    25    26 1   
    35    26    27 1   
    36     3    33 1   
    37     4    34 1   
    38     9    35 1   
    39     9    36 1   
    40     9    37 1   
    41    10    38 1   
    42    10    39 1   
    43    10    40 1   
    44    11    41 1   
    45    11    42 1   
    46    13    43 1   
    47    14    44 1   
    48    15    45 1   
    49    16    46 1   
    50    16    47 1   
    51    22    48 1   
    52    25    49 1   
    53    25    50 1   
    54    26    51 1   
    55    26    52 1   
    56    27    53 1   
    57    27    54 1   
    58    27    55 1   
    59    29    56 1   
    60    30    57 1   
    61    32    58 1   
@<TRIPOS>SUBSTRUCTURE
     1 1BE         1 TEMP              0 ****  ****    0 ROOT
