@<TRIPOS>MOLECULE
molecule
   49    52     1     0     0
SMALL
bcc


@<TRIPOS>ATOM
      1 Cl1          0.0000     0.0000     0.0000 cl         1 1BF      -0.139400
      2 C2           1.7350     0.0000     0.0000 ca         1 1BF       0.028400
      3 C3           2.4240     0.0000     1.2020 ca         1 1BF      -0.137000
      4 C4           3.8050     0.0000     1.2120 ca         1 1BF      -0.100000
      5 C7           2.4250    -0.0040    -1.2030 ca         1 1BF      -0.131000
      6 C6           3.8010    -0.0040    -1.2040 ca         1 1BF      -0.040300
      7 C5           4.5000     0.0000     0.0060 ca         1 1BF      -0.148900
      8 C11          4.5810    -0.0090    -2.4920 c3         1 1BF      -0.058100
      9 C10          5.8720     0.7880    -2.3110 c3         1 1BF       0.168200
     10 C28          6.7630     0.5840    -3.5380 c3         1 1BF      -0.079600
     11 C29          5.5300     2.2730    -2.1790 c3         1 1BF      -0.079600
     12 N9           6.5950     0.3560    -1.1190 n2         1 1BF      -0.704900
     13 C8           5.9790    -0.0000    -0.0300 ce         1 1BF       0.712800
     14 N12          6.7000    -0.3810     1.0810 nu         1 1BF      -0.829200
     15 C13          8.1580    -0.4970     1.0040 c3         1 1BF       0.140500
     16 C25          8.5290    -1.8730     0.5130 c          1 1BF       0.883600
     17 O26          9.8200    -2.2070     0.3630 o          1 1BF      -0.837300
     18 O27          7.6630    -2.6740     0.2540 o          1 1BF      -0.837300
     19 C14          8.7610    -0.2720     2.3920 c3         1 1BF      -0.021100
     20 C15          8.4870     1.1420     2.8350 cd         1 1BF      -0.073300
     21 C16          7.4670     1.4590     3.6310 cc         1 1BF      -0.080100
     22 S17          7.4620     3.1910     3.9350 ss         1 1BF      -0.245800
     23 C18          8.8920     3.4070     2.9340 cc         1 1BF      -0.078100
     24 C19          9.2850     2.2170     2.4500 cd         1 1BF      -0.004000
     25 C20         10.4730     2.0600     1.5700 cd         1 1BF      -0.242300
     26 C21         10.6950     2.7130     0.3940 cc         1 1BF      -0.101300
     27 N22         11.8830     2.2900    -0.0900 na         1 1BF      -0.049600
     28 N23         12.4100     1.3530     0.8070 nc         1 1BF      -0.509800
     29 C24         11.5750     1.2160     1.8020 cd         1 1BF       0.368200
     30 H1           1.8780     0.0000     2.1370 ha         1 1BF       0.133000
     31 H2           4.3440     0.0000     2.1520 ha         1 1BF       0.138000
     32 H3           1.8820    -0.0830    -2.1380 ha         1 1BF       0.137000
     33 H4           3.9850     0.4460    -3.2740 hc         1 1BF       0.057700
     34 H5           4.8230    -1.0290    -2.7620 hc         1 1BF       0.057700
     35 H6           7.6750     1.1580    -3.4210 hc         1 1BF       0.032533
     36 H7           6.2380     0.9170    -4.4250 hc         1 1BF       0.032533
     37 H8           7.0090    -0.4660    -3.6360 hc         1 1BF       0.032533
     38 H9           4.9970     2.4400    -1.2510 hc         1 1BF       0.032533
     39 H10          4.9090     2.5760    -3.0120 hc         1 1BF       0.032533
     40 H11          6.4440     2.8550    -2.1790 hc         1 1BF       0.032533
     41 H12          6.2230    -0.6250     1.9270 hn         1 1BF       0.423800
     42 H13          8.5430     0.2480     0.3180 h1         1 1BF       0.088700
     43 H15          9.8310    -0.4370     2.3520 hc         1 1BF       0.064200
     44 H16          8.3150    -0.9630     3.0960 hc         1 1BF       0.064200
     45 H17          6.7480     0.7550     4.0310 h4         1 1BF       0.162000
     46 H18          9.3830     4.3530     2.7430 h4         1 1BF       0.160000
     47 H19         10.0380     3.4390    -0.0690 h4         1 1BF       0.167000
     48 H20         12.3110     2.5930    -0.9430 hn         1 1BF       0.320700
     49 H21         11.7050     0.5610     2.6550 h4         1 1BF       0.054100
@<TRIPOS>BOND
     1     1     2 1   
     2     3     2 ar  
     3     3     4 ar  
     4     2     5 ar  
     5     4     7 ar  
     6    18    16 1   
     7     5     6 ar  
     8    28    27 1   
     9    28    29 2   
    10     7     6 ar  
    11     7    13 1   
    12     6     8 1   
    13    16    17 1   
    14    16    15 1   
    15    27    26 1   
    16    14    13 1   
    17    14    15 1   
    18    29    25 1   
    19    13    12 2   
    20    15    19 1   
    21     8     9 1   
    22    19    20 1   
    23    26    25 2   
    24    25    24 1   
    25    12     9 1   
    26     9    11 1   
    27     9    10 1   
    28    20    24 1   
    29    20    21 2   
    30    24    23 2   
    31    21    22 1   
    32    23    22 1   
    33     3    30 1   
    34     4    31 1   
    35     5    32 1   
    36     8    33 1   
    37     8    34 1   
    38    10    35 1   
    39    10    36 1   
    40    10    37 1   
    41    11    38 1   
    42    11    39 1   
    43    11    40 1   
    44    14    41 1   
    45    15    42 1   
    46    19    43 1   
    47    19    44 1   
    48    21    45 1   
    49    23    46 1   
    50    26    47 1   
    51    27    48 1   
    52    29    49 1   
@<TRIPOS>SUBSTRUCTURE
     1 1BF         1 TEMP              0 ****  ****    0 ROOT
