@<TRIPOS>MOLECULE
1BF
   50    53     1     0     0
SMALL
bcc


@<TRIPOS>ATOM
      1 Cl1          2.5610    -4.0640    -2.2010 cl         1 1BF      -0.071400
      2 C2           3.2830    -2.7010    -1.4960 ca         1 1BF       0.048400
      3 C3           3.3580    -2.5920    -0.1050 ca         1 1BF      -0.123000
      4 C4           3.9550    -1.4710     0.4730 ca         1 1BF      -0.080000
      5 C7           3.7950    -1.6900    -2.3170 ca         1 1BF      -0.137000
      6 C6           4.3890    -0.5680    -1.7410 ca         1 1BF      -0.038300
      7 C5           4.4820    -0.4620    -0.3370 ca         1 1BF      -0.207900
      8 C11          4.9430     0.5050    -2.6090 c3         1 1BF      -0.068100
      9 C10          4.9200     1.8950    -1.9310 c3         1 1BF       0.146200
     10 C28          3.5100     2.4940    -2.0860 c3         1 1BF      -0.087600
     11 C29          5.8990     2.8000    -2.7010 c3         1 1BF      -0.087600
     12 N9           5.3090     1.8560    -0.5220 n2         1 1BF      -0.580900
     13 C8           5.1130     0.7780     0.1740 ce         1 1BF       0.584800
     14 N12          5.5410     0.8020     1.5920 ny         1 1BF      -0.726000
     15 C13          6.5900    -0.2200     1.9370 c3         1 1BF      -0.042500
     16 C25          6.0270    -1.2120     3.0600 c          1 1BF       0.927600
     17 O26          6.7970    -2.1280     3.3920 o          1 1BF      -0.765300
     18 O27          4.8580    -0.9630     3.4670 o          1 1BF      -0.765300
     19 C14          7.8660     0.4090     2.4820 c3         1 1BF      -0.029100
     20 C15          8.5620     1.2820     1.5190 cc         1 1BF      -0.117300
     21 C16          9.5040     0.8440     0.6090 cd         1 1BF      -0.169100
     22 S17         10.1160     2.0920    -0.3080 ss         1 1BF       0.051200
     23 C18          9.1800     3.2500     0.4340 cd         1 1BF      -0.169100
     24 C19          8.3710     2.7100     1.4200 cc         1 1BF      -0.032000
     25 C20          7.4680     3.4720     2.2270 cc         1 1BF      -0.217300
     26 C21          6.4840     4.3820     1.7880 cd         1 1BF      -0.138300
     27 N22          5.9010     4.9110     2.9390 na         1 1BF      -0.024600
     28 N23          6.4430     4.4220     4.0570 nd         1 1BF      -0.506800
     29 C24          7.4000     3.5390     3.6780 cc         1 1BF       0.310200
     30 H1           2.9550    -3.3860     0.5440 ha         1 1BF       0.169000
     31 H2           4.0010    -1.4220     1.5800 ha         1 1BF       0.202000
     32 H3           3.7290    -1.7770    -3.4120 ha         1 1BF       0.154000
     33 H4           4.3670     0.5670    -3.5700 hc         1 1BF       0.072700
     34 H5           6.0040     0.2380    -2.8720 hc         1 1BF       0.072700
     35 H6           3.2810     2.6030    -3.1730 hc         1 1BF       0.049200
     36 H7           3.4530     3.5010    -1.6080 hc         1 1BF       0.049200
     37 H8           2.7460     1.8260    -1.6230 hc         1 1BF       0.049200
     38 H9           6.9470     2.4260    -2.6130 hc         1 1BF       0.049200
     39 H10          5.6070     2.8030    -3.7790 hc         1 1BF       0.049200
     40 H11          5.8550     3.8450    -2.3120 hc         1 1BF       0.049200
     41 H12          5.8880     1.7390     1.8480 hn         1 1BF       0.472800
     42 H13          6.8110    -0.8300     1.0200 hx         1 1BF       0.097700
     43 H15          7.6380     0.9790     3.4240 hc         1 1BF       0.092700
     44 H16          8.5270    -0.4590     2.7730 hc         1 1BF       0.092700
     45 H17          9.8280    -0.1910     0.5000 h4         1 1BF       0.181000
     46 H18          9.2230     4.3060     0.1740 h4         1 1BF       0.174000
     47 H19          6.1740     4.6640     0.7830 h4         1 1BF       0.187000
     48 H20          5.1890     5.6020     2.9870 hn         1 1BF       0.325700
     49 H21          8.0120     2.9950     4.3990 h4         1 1BF       0.058100
     50 H122         4.7100     0.5700     2.1880 hn         1 1BF       0.472800
@<TRIPOS>BOND
     1     1     2 1   
     2     2     3 ar  
     3     2     5 ar  
     4     3     4 ar  
     5     3    30 1   
     6     4     7 ar  
     7     4    31 1   
     8     5     6 ar  
     9     5    32 1   
    10     6     7 ar  
    11     6     8 1   
    12     7    13 1   
    13     8     9 1   
    14     8    33 1   
    15     8    34 1   
    16     9    10 1   
    17     9    11 1   
    18     9    12 1   
    19    10    35 1   
    20    10    36 1   
    21    10    37 1   
    22    11    38 1   
    23    11    39 1   
    24    11    40 1   
    25    12    13 2   
    26    13    14 1   
    27    14    15 1   
    28    14    41 1   
    29    14    50 1   
    30    15    16 1   
    31    15    19 1   
    32    15    42 1   
    33    16    17 1   
    34    16    18 1   
    35    19    20 1   
    36    19    43 1   
    37    19    44 1   
    38    20    21 2   
    39    20    24 1   
    40    21    22 1   
    41    21    45 1   
    42    22    23 1   
    43    23    24 2   
    44    23    46 1   
    45    24    25 1   
    46    25    26 2   
    47    25    29 1   
    48    26    27 1   
    49    26    47 1   
    50    27    28 1   
    51    27    48 1   
    52    28    29 2   
    53    29    49 1   
@<TRIPOS>SUBSTRUCTURE
     1 1BF         1 TEMP              0 ****  ****    0 ROOT
