@<TRIPOS>MOLECULE
1BG
   86    90     1     0     0
SMALL
bcc


@<TRIPOS>ATOM
      1 N2          -0.4630    -0.6260    -0.5990 ny         1 1BG      -0.763000
      2 C1           0.8580    -0.3170    -1.2040 c3         1 1BG       0.067100
      3 C3          -0.5290    -0.3470     0.8810 c3         1 1BG       0.064500
      4 C5          -1.9610    -0.0460     1.3240 c3         1 1BG      -0.161100
      5 C6          -0.0100    -1.5460     1.6940 c          1 1BG       0.517100
      6 O7           0.0540    -2.6910     1.2720 o          1 1BG      -0.384100
      7 N8           0.4210    -1.2560     3.0920 ny         1 1BG      -0.662800
      8 C9           0.2120    -2.3930     4.0820 c3         1 1BG       0.066500
      9 C17         -1.2280    -2.3060     4.6590 c          1 1BG       0.661100
     10 O18         -1.9020    -1.2880     4.3720 o          1 1BG      -0.633100
     11 C11          1.2590    -2.3110     5.2120 c3         1 1BG      -0.100700
     12 C16          1.2220    -0.9870     5.9640 c3         1 1BG      -0.088400
     13 C15          2.1920    -1.0290     7.1310 c3         1 1BG      -0.079900
     14 C14          3.5960    -1.3650     6.6730 c3         1 1BG      -0.093400
     15 C13          3.6340    -2.6510     5.8750 c3         1 1BG      -0.079900
     16 C12          2.6650    -2.6070     4.7050 c3         1 1BG      -0.088400
     17 N19         -1.7280    -3.3030     5.4590 n          1 1BG      -0.432800
     18 C20         -1.0790    -4.5940     5.6750 c3         1 1BG       0.083000
     19 C21         -2.0840    -5.7610     5.5720 c3         1 1BG       0.148500
     20 C23         -1.5680    -7.1400     6.0160 c3         1 1BG      -0.074400
     21 C24         -2.8250    -7.8530     6.5320 c3         1 1BG      -0.087400
     22 C25         -3.9230    -6.7710     6.6540 c3         1 1BG       0.168800
     23 N26         -3.2550    -5.4920     6.4280 n3         1 1BG      -0.796600
     24 C27         -3.9670    -4.3370     5.9500 c3         1 1BG       0.156800
     25 C28         -3.0280    -3.1000     6.1020 c3         1 1BG       0.035700
     26 C30         -2.7870    -2.6850     7.5750 c          1 1BG       0.521100
     27 O31         -2.1500    -1.6810     7.8700 o          1 1BG      -0.422100
     28 N32         -3.3300    -3.5390     8.6640 ny         1 1BG      -0.666800
     29 C33         -3.3500    -2.8980    10.0630 c3         1 1BG       0.209800
     30 C34         -3.0920    -3.9670    11.1260 c3         1 1BG      -0.108400
     31 C35         -4.2680    -4.9040    11.2710 c3         1 1BG      -0.086400
     32 C36         -5.5240    -4.1580    11.6680 c3         1 1BG      -0.063100
     33 C37         -5.6880    -2.8350    11.0090 ca         1 1BG      -0.024300
     34 C38         -6.8960    -2.1450    11.1980 ca         1 1BG      -0.126000
     35 C39         -7.0750    -0.8690    10.6740 ca         1 1BG      -0.062000
     36 C40         -6.0450    -0.2550     9.9510 ca         1 1BG      -0.125000
     37 C41         -4.8480    -0.9290     9.7500 ca         1 1BG      -0.114000
     38 C42         -4.6660    -2.2220    10.2680 ca         1 1BG      -0.202300
     39 H4          -0.6970    -1.6170    -0.7750 hn         1 1BG       0.486300
     40 H1           1.1030     0.7720    -1.0630 hx         1 1BG       0.129700
     41 H2           0.8060    -0.5390    -2.3110 hx         1 1BG       0.129700
     42 H3           1.6520    -0.9590    -0.7380 hx         1 1BG       0.129700
     43 H6           0.1260     0.5610     1.0740 hx         1 1BG       0.148700
     44 H7          -2.0060     0.0930     2.4370 hc         1 1BG       0.114700
     45 H8          -2.3240     0.9060     0.8530 hc         1 1BG       0.114700
     46 H9          -2.6640    -0.8730     1.0520 hc         1 1BG       0.114700
     47 H10          1.4320    -1.0340     3.0910 hn         1 1BG       0.496300
     48 H11          0.3480    -3.3600     3.5070 hx         1 1BG       0.143700
     49 H12          0.9880    -3.1320     5.9410 hc         1 1BG       0.108700
     50 H21          0.1830    -0.7890     6.3390 hc         1 1BG       0.043450
     51 H22          1.5150    -0.1400     5.2900 hc         1 1BG       0.043450
     52 H19          1.8460    -1.7900     7.8790 hc         1 1BG       0.072700
     53 H20          2.1920    -0.0300     7.6430 hc         1 1BG       0.072700
     54 H17          4.0040    -0.5220     6.0540 hc         1 1BG       0.073700
     55 H18          4.2640    -1.4670     7.5700 hc         1 1BG       0.073700
     56 H15          3.3810    -3.5190     6.5380 hc         1 1BG       0.072700
     57 H16          4.6720    -2.8220     5.4830 hc         1 1BG       0.072700
     58 H13          2.6820    -3.5900     4.1660 hc         1 1BG       0.043450
     59 H14          3.0110    -1.8130     3.9910 hc         1 1BG       0.043450
     60 H23         -0.2760    -4.7610     4.9060 h1         1 1BG       0.070700
     61 H24         -0.6010    -4.5870     6.6970 h1         1 1BG       0.070700
     62 H25         -2.3940    -5.8420     4.4840 h1         1 1BG       0.053700
     63 H26         -1.1120    -7.6870     5.1570 hc         1 1BG       0.072700
     64 H27         -0.7990    -7.0460     6.8220 hc         1 1BG       0.072700
     65 H28         -2.6320    -8.3320     7.5220 hc         1 1BG       0.084700
     66 H29         -3.1530    -8.6510     5.8220 hc         1 1BG       0.084700
     67 H30         -4.3650    -6.7540     7.6870 h1         1 1BG       0.063700
     68 H31         -4.7500    -6.9630     5.9180 h1         1 1BG       0.063700
     69 H33         -4.2630    -4.4040     4.8610 h1         1 1BG       0.079700
     70 H34         -4.9180    -4.1800     6.5280 h1         1 1BG       0.079700
     71 H35         -3.5520    -2.2090     5.6280 h1         1 1BG       0.147700
     72 H36         -2.7650    -4.4000     8.7020 hn         1 1BG       0.469800
     73 H37         -2.5090    -2.1410    10.0780 hx         1 1BG       0.120700
     74 H38         -2.1520    -4.5390    10.9070 hc         1 1BG       0.090200
     75 H39         -2.9260    -3.4180    12.0950 hc         1 1BG       0.090200
     76 H40         -4.0340    -5.6720    12.0580 hc         1 1BG       0.056700
     77 H41         -4.4390    -5.4660    10.3140 hc         1 1BG       0.056700
     78 H42         -5.5110    -3.9840    12.7830 hc         1 1BG       0.091200
     79 H43         -6.4220    -4.8010    11.4560 hc         1 1BG       0.091200
     80 H44         -7.7020    -2.6180    11.7840 ha         1 1BG       0.169000
     81 H45         -8.0250    -0.3330    10.8400 ha         1 1BG       0.171000
     82 H46         -6.1810     0.7650     9.5590 ha         1 1BG       0.161000
     83 H47         -4.0240    -0.4400     9.2060 ha         1 1BG       0.131000
     84 H231        -1.1870    -0.0450    -1.0580 hn         1 1BG       0.486300
     85 H82         -0.1050    -0.4350     3.4530 hn         1 1BG       0.496300
     86 H322        -4.2960    -3.8070     8.4350 hn         1 1BG       0.469800
@<TRIPOS>BOND
     1     1     2 1   
     2     1     3 1   
     3     1    39 1   
     4     1    84 1   
     5     2    40 1   
     6     2    41 1   
     7     2    42 1   
     8     3     4 1   
     9     3     5 1   
    10     3    43 1   
    11     4    44 1   
    12     4    45 1   
    13     4    46 1   
    14     5     6 2   
    15     5     7 1   
    16     7     8 1   
    17     7    47 1   
    18     7    85 1   
    19     8     9 1   
    20     8    11 1   
    21     8    48 1   
    22     9    10 2   
    23     9    17 1   
    24    11    12 1   
    25    11    16 1   
    26    11    49 1   
    27    12    13 1   
    28    12    50 1   
    29    12    51 1   
    30    13    14 1   
    31    13    52 1   
    32    13    53 1   
    33    14    15 1   
    34    14    54 1   
    35    14    55 1   
    36    15    16 1   
    37    15    56 1   
    38    15    57 1   
    39    16    58 1   
    40    16    59 1   
    41    17    18 1   
    42    17    25 1   
    43    18    19 1   
    44    18    60 1   
    45    18    61 1   
    46    19    20 1   
    47    19    23 1   
    48    19    62 1   
    49    20    21 1   
    50    20    63 1   
    51    20    64 1   
    52    21    22 1   
    53    21    65 1   
    54    21    66 1   
    55    22    23 1   
    56    22    67 1   
    57    22    68 1   
    58    23    24 1   
    59    24    25 1   
    60    24    69 1   
    61    24    70 1   
    62    25    26 1   
    63    25    71 1   
    64    26    27 2   
    65    26    28 1   
    66    28    29 1   
    67    28    72 1   
    68    28    86 1   
    69    29    30 1   
    70    29    38 1   
    71    29    73 1   
    72    30    31 1   
    73    30    74 1   
    74    30    75 1   
    75    31    32 1   
    76    31    76 1   
    77    31    77 1   
    78    32    33 1   
    79    32    78 1   
    80    32    79 1   
    81    33    34 ar  
    82    33    38 ar  
    83    34    35 ar  
    84    34    80 1   
    85    35    36 ar  
    86    35    81 1   
    87    36    37 ar  
    88    36    82 1   
    89    37    38 ar  
    90    37    83 1   
@<TRIPOS>SUBSTRUCTURE
     1 1BG         1 TEMP              0 ****  ****    0 ROOT
