@<TRIPOS>MOLECULE
molecule
   83    87     1     0     0
SMALL
bcc


@<TRIPOS>ATOM
      1 N2           0.0000     0.0000     0.0000 n7         1 1BG      -0.790200
      2 C1           1.4690     0.0000     0.0000 c3         1 1BG       0.147100
      3 C3          -0.5270     0.0000     1.3710 c3         1 1BG       0.091500
      4 C5          -0.5920     1.4380     1.8910 c3         1 1BG      -0.130100
      5 C6          -1.9090    -0.6000     1.3780 c          1 1BG       0.661100
      6 O7          -2.4060    -0.9900     0.3440 o          1 1BG      -0.589100
      7 N8          -2.5930    -0.7030     2.5350 ns         1 1BG      -0.575900
      8 C9          -3.9360    -1.2860     2.5420 c3         1 1BG       0.051700
      9 C17         -4.7060    -0.7610     3.7270 c          1 1BG       0.664100
     10 O18         -4.1130    -0.2880     4.6740 o          1 1BG      -0.626100
     11 C11         -3.8300    -2.8100     2.6390 c3         1 1BG      -0.081700
     12 C16         -2.9870    -3.1870     3.8590 c3         1 1BG      -0.073400
     13 C15         -2.8810    -4.7100     3.9560 c3         1 1BG      -0.079400
     14 C14         -2.2180    -5.2560     2.6890 c3         1 1BG      -0.081400
     15 C13         -3.0610    -4.8800     1.4690 c3         1 1BG      -0.079400
     16 C12         -3.1670    -3.3560     1.3730 c3         1 1BG      -0.073400
     17 N19         -6.0530    -0.8150     3.7330 n          1 1BG      -0.463800
     18 C20         -6.7740    -1.4900     2.6360 c3         1 1BG       0.109000
     19 C21         -7.8450    -0.5160     2.1510 c3         1 1BG       0.136500
     20 C23         -8.8360    -1.1590     1.1640 c3         1 1BG      -0.074400
     21 C24        -10.1020    -0.2790     1.3510 c3         1 1BG      -0.088400
     22 C25         -9.9410     0.3610     2.7510 c3         1 1BG       0.159800
     23 N26         -8.7030    -0.1910     3.3220 n3         1 1BG      -0.729600
     24 C27         -7.9880     0.6460     4.2740 c3         1 1BG       0.164800
     25 C28         -6.8120    -0.2090     4.8350 c3         1 1BG       0.045700
     26 C30         -7.3620    -1.3160     5.6950 c          1 1BG       0.663100
     27 O31         -7.1430    -2.4740     5.4070 o          1 1BG      -0.603100
     28 N32         -8.0970    -1.0200     6.7850 ns         1 1BG      -0.577900
     29 C33         -8.6330    -2.0960     7.6220 c3         1 1BG       0.168000
     30 C34         -9.8870    -1.6000     8.3400 c3         1 1BG      -0.093400
     31 C35        -10.3040    -2.6570     9.3690 c3         1 1BG      -0.077400
     32 C36         -9.2730    -2.6650    10.4950 c3         1 1BG      -0.037100
     33 C37         -7.8800    -2.7840     9.9370 ca         1 1BG      -0.073300
     34 C38         -6.8670    -3.1760    10.8030 ca         1 1BG      -0.137000
     35 C39         -5.5690    -3.2990    10.3530 ca         1 1BG      -0.124000
     36 C40         -5.2720    -3.0280     9.0300 ca         1 1BG      -0.133000
     37 C41         -6.2760    -2.6400     8.1690 ca         1 1BG      -0.109000
     38 C42         -7.5850    -2.5180     8.6180 ca         1 1BG      -0.102300
     39 H4          -0.3340     0.8090    -0.4860 hn         1 1BG       0.363800
     40 H1           1.8300    -0.2050    -1.0010 h1         1 1BG       0.032033
     41 H2           1.8300    -0.7640     0.6780 h1         1 1BG       0.032033
     42 H3           1.8300     0.9690     0.3230 h1         1 1BG       0.032033
     43 H6           0.1250    -0.5860     2.0090 h1         1 1BG       0.075700
     44 H7          -1.4550     1.9360     1.4660 hc         1 1BG       0.045033
     45 H8          -0.6760     1.4280     2.9710 hc         1 1BG       0.045033
     46 H9           0.3090     1.9670     1.6040 hc         1 1BG       0.045033
     47 H10         -2.1990    -0.3460     3.3820 hn         1 1BG       0.333500
     48 H11         -4.4520    -1.0170     1.6280 h1         1 1BG       0.086700
     49 H12         -4.8200    -3.2400     2.7400 hc         1 1BG       0.063700
     50 H21         -3.4580    -2.8010     4.7550 hc         1 1BG       0.052700
     51 H22         -1.9950    -2.7630     3.7550 hc         1 1BG       0.052700
     52 H19         -3.8730    -5.1340     4.0540 hc         1 1BG       0.041200
     53 H20         -2.2820    -4.9740     4.8190 hc         1 1BG       0.041200
     54 H17         -1.2280    -4.8280     2.5880 hc         1 1BG       0.038700
     55 H18         -2.1450    -6.3340     2.7580 hc         1 1BG       0.038700
     56 H15         -4.0520    -5.3040     1.5720 hc         1 1BG       0.041200
     57 H16         -2.5890    -5.2650     0.5730 hc         1 1BG       0.041200
     58 H13         -2.1750    -2.9320     1.2750 hc         1 1BG       0.052700
     59 H14         -3.7660    -3.0910     0.5100 hc         1 1BG       0.052700
     60 H23         -7.2380    -2.3970     3.0020 h1         1 1BG       0.076200
     61 H24         -6.0890    -1.7170     1.8280 h1         1 1BG       0.076200
     62 H25         -7.4020     0.3800     1.7330 h1         1 1BG       0.043700
     63 H26         -9.0380    -2.1880     1.4380 hc         1 1BG       0.058200
     64 H27         -8.4660    -1.0890     0.1480 hc         1 1BG       0.058200
     65 H28        -10.1410     0.4900     0.5890 hc         1 1BG       0.050200
     66 H29        -10.9940    -0.8930     1.3210 hc         1 1BG       0.050200
     67 H30         -9.8570     1.4370     2.6580 h1         1 1BG       0.039700
     68 H31        -10.7860     0.1010     3.3770 h1         1 1BG       0.039700
     69 H33         -7.6000     1.5250     3.7730 h1         1 1BG       0.045200
     70 H34         -8.6510     0.9360     5.0810 h1         1 1BG       0.045200
     71 H35         -6.1550     0.4210     5.4220 h1         1 1BG       0.104700
     72 H36         -8.2500    -0.0640     7.0410 hn         1 1BG       0.312500
     73 H37         -8.8920    -2.9430     7.0000 h1         1 1BG       0.091700
     74 H38         -9.6720    -0.6650     8.8440 hc         1 1BG       0.047200
     75 H39        -10.6850    -1.4570     7.6210 hc         1 1BG       0.047200
     76 H40        -10.3140    -3.6290     8.8920 hc         1 1BG       0.050200
     77 H41        -11.2710    -2.3880     9.7780 hc         1 1BG       0.050200
     78 H42         -9.3490    -1.7320    11.0390 hc         1 1BG       0.052200
     79 H43         -9.4640    -3.5210    11.1310 hc         1 1BG       0.052200
     80 H44         -7.0990    -3.3890    11.8390 ha         1 1BG       0.126000
     81 H45         -4.7840    -3.6030    11.0350 ha         1 1BG       0.127000
     82 H46         -4.2540    -3.1220     8.6720 ha         1 1BG       0.132000
     83 H47         -6.0430    -2.4280     7.1330 ha         1 1BG       0.156000
@<TRIPOS>BOND
     1    21    22 1
     2    21    20 1
     3    22    23 1
     4    20    19 1
     5    23    19 1
     6    23    24 1
     7    19    18 1
     8    31    30 1
     9    31    32 1
    10    24    25 1
    11    30    29 1
    12    32    33 1
    13    18    17 1
    14    25    26 1
    15    25    17 1
    16    26    28 1
    17    26    27 2
    18    28    29 1
    19    17     9 1
    20    29    38 1
    21    33    38 ar
    22    33    34 ar
    23    38    37 ar
    24    34    35 ar
    25     9     8 1
    26     9    10 2
    27     8    11 1
    28     8     7 1
    29    11    16 1
    30    11    12 1
    31    37    36 ar
    32    35    36 ar
    33    16    15 1
    34    15    14 1
    35    12    13 1
    36    13    14 1
    37     6     5 2
    38     7     5 1
    39     5     3 1
    40     3     4 1
    41     3     1 1
    42     1     2 1
    43     2    40 1
    44     2    41 1
    45     2    42 1
    46     1    39 1
    47     3    43 1
    48     4    44 1
    49     4    45 1
    50     4    46 1
    51     7    47 1
    52     8    48 1
    53    11    49 1
    54    16    58 1
    55    16    59 1
    56    15    56 1
    57    15    57 1
    58    14    54 1
    59    14    55 1
    60    13    52 1
    61    13    53 1
    62    12    50 1
    63    12    51 1
    64    18    60 1
    65    18    61 1
    66    19    62 1
    67    20    63 1
    68    20    64 1
    69    21    65 1
    70    21    66 1
    71    22    67 1
    72    22    68 1
    73    24    69 1
    74    24    70 1
    75    25    71 1
    76    28    72 1
    77    29    73 1
    78    30    74 1
    79    30    75 1
    80    31    76 1
    81    31    77 1
    82    32    78 1
    83    32    79 1
    84    34    80 1
    85    35    81 1
    86    36    82 1
    87    37    83 1
@<TRIPOS>SUBSTRUCTURE
     1 1BG         1 TEMP              0 ****  ****    0 ROOT
