@<TRIPOS>MOLECULE
molecule
   67    69     1     0     0
SMALL
bcc


@<TRIPOS>ATOM
      1 C1           0.0000     0.0000     0.0000 c3         1 1BH       0.224700
      2 C3          -1.8090     1.6130    -0.0020 c          1 1BH       0.757100
      3 O4          -4.9320     6.9640     0.0310 o          1 1BH      -0.586100
      4 O5          -5.2780    11.3030     0.3430 oh         1 1BH      -0.604800
      5 C7          -5.1300     7.0860    -1.1590 c          1 1BH       0.665100
      6 C8          -4.4940     9.4290    -0.9660 c3         1 1BH       0.123700
      7 C9          -5.7130    10.1810    -0.4280 c3         1 1BH       0.127100
      8 C21          1.5050     0.0000     0.0000 ca         1 1BH      -0.101300
      9 C22          2.1960     0.0000     1.1990 ca         1 1BH      -0.101000
     10 C24          4.2700     0.0020     0.0020 ca         1 1BH      -0.116000
     11 N1          -2.2590     2.8840    -0.0020 ns         1 1BH      -0.559900
     12 C4          -3.6990     3.1510    -0.0020 c3         1 1BH       0.069700
     13 C41         -4.2020     3.2430     1.4400 c3         1 1BH      -0.106100
     14 C5          -3.9690     4.4520    -0.7110 c          1 1BH       0.679100
     15 O3          -3.1270     5.3250    -0.7180 o          1 1BH      -0.583100
     16 N2          -5.1440     4.6450    -1.3410 n          1 1BH      -0.482800
     17 CD          -6.2020     3.6360    -1.5120 c3         1 1BH       0.095000
     18 C6          -5.5870     5.9030    -1.9710 c3         1 1BH       0.043700
     19 C61         -7.1340     5.8210    -1.9800 c3         1 1BH      -0.089400
     20 CG          -7.3650     4.3130    -2.2670 c3         1 1BH      -0.093400
     21 C81         -3.6660    10.3650    -1.8490 c3         1 1BH      -0.046100
     22 C82         -2.4650     9.6240    -2.3790 ca         1 1BH      -0.079300
     23 C83         -2.5480     8.9420    -3.5780 ca         1 1BH      -0.121000
     24 C87         -1.2800     9.6320    -1.6680 ca         1 1BH      -0.121000
     25 C84         -1.4460     8.2630    -4.0640 ca         1 1BH      -0.121500
     26 C86         -0.1790     8.9500    -2.1520 ca         1 1BH      -0.121500
     27 C85         -0.2620     8.2660    -3.3500 ca         1 1BH      -0.126000
     28 CC          -6.5390     9.2460     0.4550 c3         1 1BH      -0.119100
     29 O1          -0.4850     1.3680    -0.0010 os         1 1BH      -0.444900
     30 C26          2.1980    -0.0050    -1.1960 ca         1 1BH      -0.101000
     31 C23          3.5790     0.0010     1.1990 ca         1 1BH      -0.133000
     32 C25          3.5800     0.0010    -1.1940 ca         1 1BH      -0.133000
     33 O2          -2.5980     0.6900    -0.0010 o          1 1BH      -0.625000
     34 H11         -0.3610    -0.5100     0.8850 h1         1 1BH       0.053700
     35 H12         -0.3610    -0.5110    -0.8840 h1         1 1BH       0.053700
     36 H8          -3.8870     9.0850    -0.1370 h1         1 1BH       0.107700
     37 H9          -6.3190    10.5250    -1.2570 h1         1 1BH       0.020700
     38 H22          1.6540    -0.0000     2.1360 ha         1 1BH       0.134000
     39 H24          5.3540     0.0050     0.0020 ha         1 1BH       0.130000
     40 HN1         -1.6090     3.6450     0.0170 hn         1 1BH       0.347500
     41 H4          -4.2150     2.3470    -0.5130 h1         1 1BH       0.086700
     42 H411        -4.8360     2.3920     1.6570 hc         1 1BH       0.054033
     43 H412        -3.3570     3.2460     2.1180 hc         1 1BH       0.054033
     44 H413        -4.7690     4.1570     1.5670 hc         1 1BH       0.054033
     45 HD1         -6.5430     3.2950    -0.5420 h1         1 1BH       0.050200
     46 HD2         -5.8240     2.8020    -2.0910 h1         1 1BH       0.050200
     47 H6          -5.2100     5.9660    -2.9850 h1         1 1BH       0.063700
     48 H611        -7.5480     6.4320    -2.7730 hc         1 1BH       0.063200
     49 H612        -7.5410     6.0960    -1.0150 hc         1 1BH       0.063200
     50 HG1         -7.2990     4.1130    -3.3290 hc         1 1BH       0.057700
     51 HG2         -8.3190     3.9910    -1.8670 hc         1 1BH       0.057700
     52 H811        -3.3370    11.2160    -1.2650 hc         1 1BH       0.058200
     53 H812        -4.2730    10.7090    -2.6780 hc         1 1BH       0.058200
     54 H83         -3.4760     8.9390    -4.1370 ha         1 1BH       0.124500
     55 H87         -1.2150    10.1680    -0.7290 ha         1 1BH       0.124500
     56 H84         -1.5110     7.7270    -5.0030 ha         1 1BH       0.127500
     57 H86          0.7490     8.9550    -1.5930 ha         1 1BH       0.127500
     58 H85          0.6010     7.7320    -3.7300 ha         1 1BH       0.128000
     59 HC1         -7.2380     9.8290     1.0430 hc         1 1BH       0.047367
     60 HC2         -7.0860     8.5490    -0.1680 hc         1 1BH       0.047367
     61 HC3         -5.8790     8.6980     1.1170 hc         1 1BH       0.047367
     62 H26          1.6580    -0.0050    -2.1350 ha         1 1BH       0.134000
     63 H23          4.1200     0.0020     2.1370 ha         1 1BH       0.131500
     64 H25          4.1230    -0.0010    -2.1320 ha         1 1BH       0.131500
     65 N3          -4.9390     8.2790    -1.7550 ns         1 1BH      -0.573900
     66 HO5         -5.9330    11.9810     0.3080 ho         1 1BH       0.403000
     67 HN3         -5.1480     8.3900    -2.7280 hn         1 1BH       0.309500
@<TRIPOS>BOND
     1     1     8 1
     2     1    29 1
     3     1    34 1
     4     1    35 1
     5     2    11 1
     6     2    29 1
     7     2    33 2
     8     3     5 2
     9     4     7 1
    10     4    66 1
    11     5    18 1
    12     5    65 1
    13     6     7 1
    14     6    65 1
    15     6    21 1
    16     6    36 1
    17     7    28 1
    18     7    37 1
    19     8     9 ar
    20     8    30 ar
    21     9    31 ar
    22     9    38 1
    23    10    31 ar
    24    10    32 ar
    25    10    39 1
    26    11    12 1
    27    11    40 1
    28    12    13 1
    29    12    14 1
    30    12    41 1
    31    13    42 1
    32    13    43 1
    33    13    44 1
    34    14    15 2
    35    14    16 1
    36    16    17 1
    37    16    18 1
    38    17    20 1
    39    17    45 1
    40    17    46 1
    41    18    19 1
    42    18    47 1
    43    19    20 1
    44    19    48 1
    45    19    49 1
    46    20    50 1
    47    20    51 1
    48    65    67 1
    49    21    22 1
    50    21    52 1
    51    21    53 1
    52    22    23 ar
    53    22    24 ar
    54    23    25 ar
    55    23    54 1
    56    24    26 ar
    57    24    55 1
    58    25    27 ar
    59    25    56 1
    60    26    27 ar
    61    26    57 1
    62    27    58 1
    63    28    59 1
    64    28    60 1
    65    28    61 1
    66    30    32 ar
    67    30    62 1
    68    31    63 1
    69    32    64 1
@<TRIPOS>SUBSTRUCTURE
     1 1BH         1 TEMP              0 ****  ****    0 ROOT
