@<TRIPOS>MOLECULE
1BI
   75    80     1     0     0
SMALL
bcc


@<TRIPOS>ATOM
      1 C1          0.4010   -1.3560    0.2560 ca        1 1BI     -0.206600
      2 C2          1.7780   -1.0960    0.2750 ca        1 1BI     -0.024000
      3 C3          2.3530   -0.7230    1.4920 ca        1 1BI     -0.054200
      4 C4          1.5560   -0.6270    2.7020 ca        1 1BI     -0.016800
      5 C5          0.1910   -0.9320    2.6430 ca        1 1BI     -0.077000
      6 C6         -0.3780   -1.2860    1.4340 ca        1 1BI     -0.133000
      7 N7          3.6850   -0.4250    1.8170 na        1 1BI     -0.041400
      8 C8          3.7240   -0.0710    3.1850 cc        1 1BI      0.091700
      9 C9          2.4460   -0.2130    3.7570 cd        1 1BI     -0.112400
     10 C10         2.1130    0.0130    5.1790 c3        1 1BI     -0.003500
     11 C11         1.0920    1.1360    5.3380 c3        1 1BI     -0.068900
     12 C12         0.7630    1.3680    6.7980 c3        1 1BI     -0.079400
     13 C13         0.2780    0.0980    7.4660 c3        1 1BI     -0.078400
     14 C14         1.2800   -1.0250    7.3020 c3        1 1BI     -0.079400
     15 C15         1.6110   -1.2660    5.8440 c3        1 1BI     -0.068900
     16 C16         4.9380    0.3190    3.8510 cc        1 1BI     -0.228100
     17 C17         6.1750   -0.4430    3.9040 cc        1 1BI     -0.260300
     18 C18         7.0490    0.2880    4.6810 cd        1 1BI      0.254600
     19 O19         6.4360    1.4660    5.1140 os        1 1BI     -0.344800
     20 C20         5.1480    1.4670    4.6010 cd        1 1BI      0.301600
     21 C21        -0.1820   -1.7250   -1.0290 c         1 1BI      0.595700
     22 O22         0.3380   -2.3600   -1.9460 o         1 1BI     -0.483100
     23 N23        -1.5740   -1.2480   -1.3100 n4        1 1BI     -0.608700
     24 C24         4.7290   -0.1820    0.8680 c3        1 1BI     -0.034700
     25 C25         4.6220    1.1450    0.0910 c         1 1BI      0.630100
     26 O26         3.6820    1.9390    0.2890 o         1 1BI     -0.590100
     27 N27         5.5620    1.3970   -0.8940 n         1 1BI     -0.462800
     28 C28         5.5540    2.6670   -1.5970 c3        1 1BI      0.049000
     29 C29         6.8550    3.4610   -1.4210 c3        1 1BI      0.103400
     30 O30         7.9990    2.6610   -1.7010 os        1 1BI     -0.400600
     31 C31         8.0500    1.4890   -0.9000 c3        1 1BI      0.103400
     32 C32         6.7800    0.6380   -1.0690 c3        1 1BI      0.049000
     33 S36        -1.7240    0.0150   -2.7690 sy        1 1BI      1.489200
     34 O37        -2.6390    0.8890   -2.2150 o         1 1BI     -0.567300
     35 O38        -0.4170    0.3880   -2.9790 o         1 1BI     -0.567300
     36 C39        -2.3420   -0.9920   -3.8540 ca        1 1BI     -0.543500
     37 C40        -3.7200   -0.9700   -4.1670 ca        1 1BI      0.013500
     38 C41        -4.2420   -1.7820   -5.1620 ca        1 1BI     -0.150000
     39 C42        -3.4010   -2.6430   -5.8750 ca        1 1BI      0.001000
     40 C43        -2.0350   -2.6880   -5.5800 ca        1 1BI     -0.150000
     41 C44        -1.5140   -1.8750   -4.5830 ca        1 1BI      0.013500
     42 H1          2.3740   -1.1690   -0.6470 ha        1 1BI      0.161000
     43 H2         -0.4210   -0.8890    3.5590 ha        1 1BI      0.162000
     44 H3         -1.4460   -1.5520    1.4160 ha        1 1BI      0.121000
     45 H4          3.0580    0.3290    5.7140 hc        1 1BI      0.063700
     46 H5          0.1570    0.8740    4.7780 hc        1 1BI      0.040700
     47 H6          1.5010    2.0780    4.8890 hc        1 1BI      0.040700
     48 H7          1.6750    1.7450    7.3320 hc        1 1BI      0.046700
     49 H8         -0.0250    2.1610    6.8800 hc        1 1BI      0.046700
     50 H9          0.1050    0.2900    8.5570 hc        1 1BI      0.043200
     51 H10        -0.7040   -0.2080    7.0190 hc        1 1BI      0.043200
     52 H11         0.8670   -1.9670    7.7490 hc        1 1BI      0.046700
     53 H12         2.2200   -0.7720    7.8610 hc        1 1BI      0.046700
     54 H13         2.3960   -2.0620    5.7620 hc        1 1BI      0.040700
     55 H14         0.6980   -1.6350    5.3060 hc        1 1BI      0.040700
     56 H15         6.3440   -1.4120    3.4430 ha        1 1BI      0.169000
     57 H16         8.0720    0.1600    5.0270 h4        1 1BI      0.069100
     58 H17         4.5470    2.3370    4.8590 h4        1 1BI      0.072100
     59 H18        -1.9510   -0.8040   -0.4730 hn        1 1BI      0.455300
     60 H19         4.7230   -1.0300    0.1230 h1        1 1BI      0.092700
     61 H20         5.7070   -0.1840    1.4340 h1        1 1BI      0.092700
     62 H21         5.4110    2.4410   -2.6920 h1        1 1BI      0.067950
     63 H22         4.6900    3.2970   -1.2430 h1        1 1BI      0.067950
     64 H23         6.9050    4.2900   -2.1760 h1        1 1BI      0.063950
     65 H24         6.9330    3.8800   -0.3840 h1        1 1BI      0.063950
     66 H25         8.2020    1.7710    0.1750 h1        1 1BI      0.063950
     67 H26         8.9420    0.9260   -1.2820 h1        1 1BI      0.063950
     68 H27         6.8360   -0.2260   -0.3540 h1        1 1BI      0.067950
     69 H28         6.7680    0.2230   -2.1190 h1        1 1BI      0.067950
     70 H29        -4.3860   -0.2780   -3.6160 ha        1 1BI      0.173000
     71 H30        -5.3190   -1.7430   -5.3960 ha        1 1BI      0.173500
     72 H31        -3.8160   -3.2850   -6.6720 ha        1 1BI      0.170000
     73 H32        -1.3700   -3.3660   -6.1400 ha        1 1BI      0.173500
     74 H33        -0.4310   -1.9140   -4.3490 ha        1 1BI      0.173000
     75 H232       -2.1500   -2.0600   -1.5220 hn        1 1BI      0.455300
@<TRIPOS>BOND
     1    1    2 ar  
     2    1    6 ar  
     3    1   21 1   
     4    2    3 ar  
     5    2   42 1   
     6    3    4 ar  
     7    3    7 1   
     8    4    5 ar  
     9    4    9 1   
    10    5    6 ar  
    11    5   43 1   
    12    6   44 1   
    13    7    8 1   
    14    7   24 1   
    15    8    9 2   
    16    8   16 1   
    17    9   10 1   
    18   10   11 1   
    19   10   15 1   
    20   10   45 1   
    21   11   12 1   
    22   11   46 1   
    23   11   47 1   
    24   12   13 1   
    25   12   48 1   
    26   12   49 1   
    27   13   14 1   
    28   13   50 1   
    29   13   51 1   
    30   14   15 1   
    31   14   52 1   
    32   14   53 1   
    33   15   54 1   
    34   15   55 1   
    35   16   17 1   
    36   16   20 2   
    37   17   18 2   
    38   17   56 1   
    39   18   19 1   
    40   18   57 1   
    41   19   20 1   
    42   20   58 1   
    43   21   22 2   
    44   21   23 1   
    45   23   33 1   
    46   23   59 1   
    47   23   75 1   
    48   24   25 1   
    49   24   60 1   
    50   24   61 1   
    51   25   26 2   
    52   25   27 1   
    53   27   28 1   
    54   27   32 1   
    55   28   29 1   
    56   28   62 1   
    57   28   63 1   
    58   29   30 1   
    59   29   64 1   
    60   29   65 1   
    61   30   31 1   
    62   31   32 1   
    63   31   66 1   
    64   31   67 1   
    65   32   68 1   
    66   32   69 1   
    67   33   34 2   
    68   33   35 2   
    69   33   36 1   
    70   36   37 ar  
    71   36   41 ar  
    72   37   38 ar  
    73   37   70 1   
    74   38   39 ar  
    75   38   71 1   
    76   39   40 ar  
    77   39   72 1   
    78   40   41 ar  
    79   40   73 1   
    80   41   74 1   
@<TRIPOS>SUBSTRUCTURE
     1 1BI         1 TEMP              0 ****  ****    0 ROOT
