@<TRIPOS>MOLECULE
molecule
   42    45     1     0     0
SMALL
bcc


@<TRIPOS>ATOM
      1 N1           0.0000     0.0000     0.0000 nb         1 1BJ      -0.813000
      2 C2           1.3250     0.0000     0.0000 ca         1 1BJ       0.968900
      3 N3           2.0200     0.0000     1.1270 nb         1 1BJ      -0.842000
      4 C4          -0.6800     0.0010     1.1370 ca         1 1BJ       0.511200
      5 C5           0.0080     0.0010     2.3360 ca         1 1BJ      -0.442600
      6 C6           1.4030     0.0010     2.3030 ca         1 1BJ       0.641800
      7 N7           2.1370     0.0000     3.4860 na         1 1BJ       0.033100
      8 N8           2.0000    -0.0000    -1.2090 nu         1 1BJ      -0.895900
      9 C9           1.2480    -0.0020    -2.4670 c3         1 1BJ       0.250500
     10 C10          2.1090    -0.6110    -3.5750 c3         1 1BJ      -0.095400
     11 C11          1.3250    -0.6120    -4.8890 c3         1 1BJ      -0.087900
     12 C12          0.9550     0.8250    -5.2620 c3         1 1BJ       0.144100
     13 C13          0.0940     1.4350    -4.1540 c3         1 1BJ      -0.087900
     14 C14          0.8790     1.4350    -2.8410 c3         1 1BJ      -0.095400
     15 O15          0.2230     0.8250    -6.4890 oh         1 1BJ      -0.604800
     16 C16          2.6150     0.3310     5.6240 cc         1 1BJ       0.394800
     17 N17          1.6860     0.4770     4.7220 nd         1 1BJ      -0.490100
     18 C18          3.7730    -0.2820     4.9790 ca         1 1BJ      -0.251900
     19 C19          3.4190    -0.4730     3.6300 ca         1 1BJ      -0.000200
     20 C20          4.3360    -1.0510     2.7570 ca         1 1BJ      -0.128000
     21 C21          5.5770    -1.4290     3.2210 ca         1 1BJ      -0.094000
     22 C22          5.9220    -1.2380     4.5530 ca         1 1BJ      -0.160000
     23 C23          5.0380    -0.6740     5.4270 ca         1 1BJ      -0.063000
     24 H1          -1.7630     0.0010     1.1270 h4         1 1BJ       0.032100
     25 H2          -0.5240     0.0020     3.2800 ha         1 1BJ       0.164000
     26 H3           3.0000    -0.0300    -1.2240 hn         1 1BJ       0.454800
     27 H4           0.3440    -0.5870    -2.3520 h1         1 1BJ       0.084700
     28 H5           2.3690    -1.6290    -3.3100 hc         1 1BJ       0.050200
     29 H6           3.0110    -0.0220    -3.6950 hc         1 1BJ       0.050200
     30 H7           0.4210    -1.1970    -4.7670 hc         1 1BJ       0.055700
     31 H8           1.9370    -1.0420    -5.6730 hc         1 1BJ       0.055700
     32 H9           1.8590     1.4100    -5.3770 h1         1 1BJ       0.029700
     33 H10         -0.1650     2.4530    -4.4190 hc         1 1BJ       0.055700
     34 H11         -0.8080     0.8470    -4.0340 hc         1 1BJ       0.055700
     35 H12          1.7830     2.0190    -2.9620 hc         1 1BJ       0.050200
     36 H13          0.2680     1.8660    -2.0570 hc         1 1BJ       0.050200
     37 H14          0.6870     1.3350    -7.1330 ho         1 1BJ       0.401000
     38 H15          2.5400     0.6130     6.6670 h4         1 1BJ       0.067800
     39 H16          4.0760    -1.2030     1.7160 ha         1 1BJ       0.156000
     40 H17          6.2900    -1.8780     2.5410 ha         1 1BJ       0.134000
     41 H18          6.9020    -1.5410     4.9020 ha         1 1BJ       0.132000
     42 H19          5.3170    -0.5300     6.4640 ha         1 1BJ       0.132000
@<TRIPOS>BOND
     1    14    13 1   
     2    14     9 1   
     3     8     9 1   
     4     8     2 1   
     5    13    12 1   
     6     1     2 ar  
     7     1     4 ar  
     8     9    10 1   
     9     2     3 ar  
    10    12    15 1   
    11    12    11 1   
    12     4     5 ar  
    13    10    11 1   
    14     3     6 ar  
    15     5     6 ar  
    16     6     7 1   
    17     7    19 1   
    18     7    17 1   
    19    20    19 ar  
    20    20    21 ar  
    21    19    18 ar  
    22    21    22 ar  
    23    17    16 2   
    24    18    16 1   
    25    18    23 ar  
    26    22    23 ar  
    27     4    24 1   
    28     5    25 1   
    29     8    26 1   
    30     9    27 1   
    31    10    28 1   
    32    10    29 1   
    33    11    30 1   
    34    11    31 1   
    35    12    32 1   
    36    13    33 1   
    37    13    34 1   
    38    14    35 1   
    39    14    36 1   
    40    15    37 1   
    41    16    38 1   
    42    20    39 1   
    43    21    40 1   
    44    22    41 1   
    45    23    42 1   
@<TRIPOS>SUBSTRUCTURE
     1 1BJ         1 TEMP              0 ****  ****    0 ROOT
