@<TRIPOS>MOLECULE
1BJ
   42    45     1     0     0
SMALL
bcc


@<TRIPOS>ATOM
      1 N1           0.0030    -0.0930    -0.0850 nb         1 1BJ      -0.758000
      2 C2           1.3920    -0.0090     0.0190 ca         1 1BJ       0.886900
      3 N3           2.0900     0.0390     1.2120 nb         1 1BJ      -0.786000
      4 C4          -0.6670    -0.1810     1.0700 ca         1 1BJ       0.471200
      5 C5          -0.0620    -0.1780     2.3370 ca         1 1BJ      -0.410600
      6 C6           1.3560    -0.0610     2.3590 ca         1 1BJ       0.603800
      7 N7           2.0510    -0.0540     3.5990 na         1 1BJ       0.034100
      8 N8           2.1160    -0.0550    -1.1870 nu         1 1BJ      -0.815900
      9 C9           3.4700     0.4680    -1.2620 c3         1 1BJ       0.207500
     10 C10          3.5600     1.9990    -1.1380 c3         1 1BJ      -0.093400
     11 C11          5.0020     2.4540    -1.1640 c3         1 1BJ      -0.092400
     12 C12          5.6900     1.9960    -2.4460 c3         1 1BJ       0.139100
     13 C13          5.5780     0.4830    -2.6150 c3         1 1BJ      -0.092400
     14 C14          4.1330     0.0370    -2.5850 c3         1 1BJ      -0.093400
     15 O15          7.0500     2.3970    -2.3400 oh         1 1BJ      -0.597800
     16 C16          2.3340     0.3650     5.7350 cc         1 1BJ       0.373800
     17 N17          1.4180     0.2650     4.7650 nd         1 1BJ      -0.501100
     18 C18          3.6730     0.1290     5.2030 ca         1 1BJ      -0.220900
     19 C19          3.4580    -0.1280     3.7970 ca         1 1BJ      -0.014200
     20 C20          4.5380    -0.4250     2.9580 ca         1 1BJ      -0.115000
     21 C21          5.8060    -0.4460     3.5290 ca         1 1BJ      -0.106000
     22 C22          6.0170    -0.1880     4.8920 ca         1 1BJ      -0.154000
     23 C23          4.9540     0.0970     5.7410 ca         1 1BJ      -0.067000
     24 H1          -1.7680    -0.2560     0.9760 h4         1 1BJ       0.030100
     25 H2          -0.6640    -0.2580     3.2490 ha         1 1BJ       0.176000
     26 H3           1.5650     0.1340    -2.0000 hn         1 1BJ       0.423800
     27 H4           4.0670     0.0110    -0.4150 h1         1 1BJ       0.084700
     28 H5           3.0900     2.3290    -0.1750 hc         1 1BJ       0.050950
     29 H6           2.9950     2.4820    -1.9780 hc         1 1BJ       0.050950
     30 H7           5.5570     2.0410    -0.2820 hc         1 1BJ       0.055450
     31 H8           5.0520     3.5710    -1.0990 hc         1 1BJ       0.055450
     32 H9           5.2230     2.5090    -3.3350 h1         1 1BJ       0.032700
     33 H10          6.0420     0.1800    -3.5890 hc         1 1BJ       0.055450
     34 H11          6.1550    -0.0190    -1.7950 hc         1 1BJ       0.055450
     35 H12          3.5820     0.4860    -3.4520 hc         1 1BJ       0.050950
     36 H13          4.0870    -1.0780    -2.6900 hc         1 1BJ       0.050950
     37 H14          7.4990     2.0690    -3.1270 ho         1 1BJ       0.399000
     38 H15          2.0670     0.5920     6.7690 h4         1 1BJ       0.058800
     39 H16          4.4060    -0.6370     1.8880 ha         1 1BJ       0.163000
     40 H17          6.6740    -0.6720     2.8890 ha         1 1BJ       0.135000
     41 H18          7.0420    -0.2160     5.2920 ha         1 1BJ       0.135000
     42 H19          5.1160     0.2910     6.8100 ha         1 1BJ       0.139000
@<TRIPOS>BOND
     1     1     2 ar  
     2     1     4 ar  
     3     2     3 ar  
     4     2     8 1   
     5     3     6 ar  
     6     4     5 ar  
     7     4    24 1   
     8     5     6 ar  
     9     5    25 1   
    10     6     7 1   
    11     7    17 1   
    12     7    19 1   
    13     8     9 1   
    14     8    26 1   
    15     9    10 1   
    16     9    14 1   
    17     9    27 1   
    18    10    11 1   
    19    10    28 1   
    20    10    29 1   
    21    11    12 1   
    22    11    30 1   
    23    11    31 1   
    24    12    13 1   
    25    12    15 1   
    26    12    32 1   
    27    13    14 1   
    28    13    33 1   
    29    13    34 1   
    30    14    35 1   
    31    14    36 1   
    32    15    37 1   
    33    16    17 2   
    34    16    18 1   
    35    16    38 1   
    36    18    19 ar  
    37    18    23 ar  
    38    19    20 ar  
    39    20    21 ar  
    40    20    39 1   
    41    21    22 ar  
    42    21    40 1   
    43    22    23 ar  
    44    22    41 1   
    45    23    42 1   
@<TRIPOS>SUBSTRUCTURE
     1 1BJ         1 TEMP              0 ****  ****    0 ROOT
