@<TRIPOS>MOLECULE
1BK
   58    61     1     0     0
SMALL
bcc


@<TRIPOS>ATOM
      1 N1          -0.0960    -0.0430    -0.1260 nu         1 1BK      -0.816900
      2 C2           1.3090     0.0180    -0.0550 ca         1 1BK       0.886900
      3 N3           1.8630     0.1520     1.2180 nb         1 1BK      -0.757000
      4 C4           3.1970     0.0760     1.2890 ca         1 1BK       0.470200
      5 C5           4.0370    -0.1110     0.1800 ca         1 1BK      -0.408600
      6 C6           3.3970    -0.2100    -1.0870 ca         1 1BK       0.602800
      7 N7           2.0410    -0.1330    -1.2190 nb         1 1BK      -0.785000
      8 N8           4.1730    -0.4040    -2.2630 na         1 1BK       0.034100
      9 N9           5.4950    -0.0610    -2.3050 nc         1 1BK      -0.510100
     10 C10          5.9260    -0.1840    -3.5650 cd         1 1BK       0.398800
     11 C11          3.6970    -0.7330    -3.5600 ca         1 1BK       0.018800
     12 C12          4.8380    -0.6100    -4.4360 ca         1 1BK      -0.253900
     13 C13          4.7060    -0.9030    -5.7990 ca         1 1BK       0.193100
     14 C14          3.4640    -1.3210    -6.2820 ca         1 1BK      -0.236000
     15 C15          2.3720    -1.4430    -5.4100 ca         1 1BK      -0.069000
     16 C16          2.4570    -1.1600    -4.0530 ca         1 1BK      -0.150000
     17 C17         -0.7920     0.2700    -1.3630 c3         1 1BK       0.207500
     18 C18         -0.7260     1.7550    -1.7630 c3         1 1BK      -0.093400
     19 C19         -1.4180     1.9820    -3.0870 c3         1 1BK      -0.092400
     20 C20         -2.8730     1.5260    -3.0230 c3         1 1BK       0.139100
     21 C21         -2.9670     0.0680    -2.5860 c3         1 1BK      -0.092400
     22 C22         -2.2710    -0.1510    -1.2620 c3         1 1BK      -0.093400
     23 O23         -3.4090     1.7020    -4.3290 oh         1 1BK      -0.597800
     24 O24          5.8440    -0.7450    -6.5590 os         1 1BK      -0.329900
     25 C25          5.7240    -1.1030    -7.9440 c3         1 1BK       0.133400
     26 C26          7.0920    -0.8770    -8.5620 c3         1 1BK      -0.057400
     27 C27          7.4300     0.5940    -8.6540 c3         1 1BK      -0.326600
     28 S28          9.0000     0.8540    -9.2750 s6         1 1BK       1.341000
     29 C29          9.1570     2.4940    -8.9030 c3         1 1BK      -0.370300
     30 O30          9.9400     0.1150    -8.5470 o          1 1BK      -0.652800
     31 O31          8.9830     0.6860   -10.6660 o          1 1BK      -0.652800
     32 H1          -0.5600     0.2910     0.6950 hn         1 1BK       0.423800
     33 H2           3.6250     0.1760     2.3050 h4         1 1BK       0.031100
     34 H3           5.1250    -0.1700     0.3000 ha         1 1BK       0.177000
     35 H4           6.9600     0.0080    -3.8590 h4         1 1BK       0.065800
     36 H5           3.3250    -1.5600    -7.3450 ha         1 1BK       0.140000
     37 H6           1.4070    -1.7780    -5.8240 ha         1 1BK       0.137000
     38 H7           1.5780    -1.2720    -3.4040 ha         1 1BK       0.165000
     39 H8          -0.3180    -0.3380    -2.1920 h1         1 1BK       0.084700
     40 H9          -1.2090     2.3830    -0.9690 hc         1 1BK       0.051200
     41 H10          0.3440     2.0770    -1.8500 hc         1 1BK       0.051200
     42 H11         -1.3860     3.0700    -3.3550 hc         1 1BK       0.055200
     43 H12         -0.8930     1.4200    -3.9030 hc         1 1BK       0.055200
     44 H13         -3.4450     2.1750    -2.2990 h1         1 1BK       0.032700
     45 H14         -2.5090    -0.5820    -3.3770 hc         1 1BK       0.055200
     46 H15         -4.0450    -0.2260    -2.4930 hc         1 1BK       0.055200
     47 H16         -2.7840     0.4440    -0.4620 hc         1 1BK       0.051200
     48 H17         -2.3410    -1.2340    -0.9800 hc         1 1BK       0.051200
     49 H18         -4.3150     1.3750    -4.3030 ho         1 1BK       0.399000
     50 H19          4.9460    -0.4580    -8.4300 h1         1 1BK       0.047700
     51 H20          5.4300    -2.1830    -8.0240 h1         1 1BK       0.047700
     52 H21          7.8700    -1.4010    -7.9420 hc         1 1BK       0.076700
     53 H22          7.0860    -1.3340    -9.5870 hc         1 1BK       0.076700
     54 H23          7.3050     1.0330    -7.6270 h1         1 1BK       0.117700
     55 H24          6.6570     1.1000    -9.2910 h1         1 1BK       0.117700
     56 H25          9.3240     2.6790    -7.8130 h1         1 1BK       0.118367
     57 H26          8.2730     3.1100    -9.2000 h1         1 1BK       0.118367
     58 H27         10.0360     2.9470    -9.4310 h1         1 1BK       0.118367
@<TRIPOS>BOND
     1     1     2 1   
     2     1    17 1   
     3     1    32 1   
     4     2     3 ar  
     5     2     7 ar  
     6     3     4 ar  
     7     4     5 ar  
     8     4    33 1   
     9     5     6 ar  
    10     5    34 1   
    11     6     7 ar  
    12     6     8 1   
    13     8     9 1   
    14     8    11 1   
    15     9    10 2   
    16    10    12 1   
    17    10    35 1   
    18    11    12 ar  
    19    11    16 ar  
    20    12    13 ar  
    21    13    14 ar  
    22    13    24 1   
    23    14    15 ar  
    24    14    36 1   
    25    15    16 ar  
    26    15    37 1   
    27    16    38 1   
    28    17    18 1   
    29    17    22 1   
    30    17    39 1   
    31    18    19 1   
    32    18    40 1   
    33    18    41 1   
    34    19    20 1   
    35    19    42 1   
    36    19    43 1   
    37    20    21 1   
    38    20    23 1   
    39    20    44 1   
    40    21    22 1   
    41    21    45 1   
    42    21    46 1   
    43    22    47 1   
    44    22    48 1   
    45    23    49 1   
    46    24    25 1   
    47    25    26 1   
    48    25    50 1   
    49    25    51 1   
    50    26    27 1   
    51    26    52 1   
    52    26    53 1   
    53    27    28 1   
    54    27    54 1   
    55    27    55 1   
    56    28    29 1   
    57    28    30 2   
    58    28    31 2   
    59    29    56 1   
    60    29    57 1   
    61    29    58 1   
@<TRIPOS>SUBSTRUCTURE
     1 1BK         1 TEMP              0 ****  ****    0 ROOT
