@<TRIPOS>MOLECULE
1BK
   58    61     1     0     0
SMALL
bcc


@<TRIPOS>ATOM
      1 N1           0.0000     0.0000     0.0000 nu         1 1BK      -0.478900
      2 C2           1.3830     0.0000     0.0000 ca         1 1BK       0.743900
      3 N3           2.0290     0.0000     1.1560 nb         1 1BK      -0.714000
      4 C4           3.3530    -0.0010     1.1970 ca         1 1BK       0.509200
      5 C5           4.0650    -0.0000     0.0130 ca         1 1BK      -0.420600
      6 C6           3.3570     0.0010    -1.1900 ca         1 1BK       0.432800
      7 N7           2.0290    -0.0050    -1.1560 nb         1 1BK      -0.721000
      8 N8           4.0330     0.0010    -2.4080 na         1 1BK       0.479100
      9 N9           5.3310     0.4770    -2.6150 nc         1 1BK      -0.642100
     10 C10          5.6670     0.3320    -3.8660 cd         1 1BK       0.481800
     11 C11          3.5340    -0.4720    -3.5970 ca         1 1BK      -0.129200
     12 C12          4.5380    -0.2770    -4.5630 ca         1 1BK      -0.299900
     13 C13          4.3130    -0.6690    -5.8910 ca         1 1BK       0.233100
     14 C14          3.1040    -1.2420    -6.2350 ca         1 1BK      -0.262000
     15 C15          2.1170    -1.4310    -5.2780 ca         1 1BK      -0.019000
     16 C16          2.3230    -1.0490    -3.9710 ca         1 1BK      -0.144000
     17 C17         -0.7340     0.0050     1.2690 c3         1 1BK       0.130500
     18 C18         -2.1200    -0.6060     1.0600 c3         1 1BK      -0.035400
     19 C19         -2.8850    -0.6000     2.3850 c3         1 1BK      -0.037900
     20 C20         -3.0320     0.8390     2.8830 c3         1 1BK       0.189100
     21 C21         -1.6450     1.4490     3.0920 c3         1 1BK      -0.037900
     22 C22         -0.8800     1.4440     1.7680 c3         1 1BK      -0.035400
     23 O23         -3.7460     0.8430     4.1200 oh         1 1BK      -0.583800
     24 O24          5.2750    -0.4860    -6.8300 os         1 1BK      -0.301900
     25 C25          4.9710    -0.9110    -8.1610 c3         1 1BK       0.203400
     26 C26          6.1680    -0.6250    -9.0730 c3         1 1BK      -0.002400
     27 C27          5.8420    -1.0790   -10.4970 c3         1 1BK      -0.013600
     28 S28          7.2600    -0.7420   -11.5780 s6         1 1BK       0.797000
     29 C29          6.6630    -1.3480   -13.1790 c3         1 1BK       0.013700
     30 O30          7.4390     0.6650   -11.6640 o          1 1BK      -0.582800
     31 O31          8.3490    -1.5550   -11.1630 o          1 1BK      -0.582800
     32 H1          -0.5000    -0.0080    -0.8670 hn         1 1BK       0.299800
     33 H2           3.8710    -0.0010     2.1480 h4         1 1BK      -0.016900
     34 H3           5.1490     0.0020     0.0180 ha         1 1BK       0.147000
     35 H4           6.6140     0.6140    -4.3090 h4         1 1BK       0.020800
     36 H5           2.9260    -1.5480    -7.2590 ha         1 1BK       0.121000
     37 H6           1.1740    -1.8810    -5.5620 ha         1 1BK       0.099000
     38 H7           1.5450    -1.2020    -3.2340 ha         1 1BK       0.130000
     39 H8          -0.1930    -0.5760     2.0060 h1         1 1BK       0.062700
     40 H9          -2.6640    -0.0220     0.3270 hc         1 1BK       0.020700
     41 H10         -2.0140    -1.6260     0.7100 hc         1 1BK       0.020700
     42 H11         -2.3390    -1.1810     3.1180 hc         1 1BK       0.025700
     43 H12         -3.8680    -1.0310     2.2340 hc         1 1BK       0.025700
     44 H13         -3.5730     1.4200     2.1470 h1         1 1BK      -0.002300
     45 H14         -1.7500     2.4690     3.4420 hc         1 1BK       0.025700
     46 H15         -1.1010     0.8650     3.8240 hc         1 1BK       0.025700
     47 H16         -1.4260     2.0250     1.0340 hc         1 1BK       0.020700
     48 H17          0.1030     1.8740     1.9180 hc         1 1BK       0.020700
     49 H18         -4.5400     1.3430     4.0230 ho         1 1BK       0.388000
     50 H19          4.7620    -1.9730    -8.1620 h1         1 1BK       0.002700
     51 H20          4.1050    -0.3710    -8.5240 h1         1 1BK       0.002700
     52 H21          6.3780     0.4380    -9.0710 hc         1 1BK       0.042200
     53 H22          7.0350    -1.1650    -8.7110 hc         1 1BK       0.042200
     54 H23          4.9750    -0.5400   -10.8590 h1         1 1BK       0.062700
     55 H24          5.6320    -2.1420   -10.4980 h1         1 1BK       0.062700
     56 H25          7.4310    -1.2020   -13.9290 h1         1 1BK       0.060700
     57 H26          6.4290    -2.4030   -13.1020 h1         1 1BK       0.060700
     58 H27          5.7720    -0.8000   -13.4630 h1         1 1BK       0.060700
@<TRIPOS>BOND
     1     1     2 1   
     2     1    17 1   
     3     1    32 1   
     4     2     3 ar  
     5     2     7 ar  
     6     3     4 ar  
     7     4     5 ar  
     8     4    33 1   
     9     5     6 ar  
    10     5    34 1   
    11     6     7 ar  
    12     6     8 1   
    13     8     9 1   
    14     8    11 1   
    15     9    10 2   
    16    10    12 1   
    17    10    35 1   
    18    11    12 ar  
    19    11    16 ar  
    20    12    13 ar  
    21    13    14 ar  
    22    13    24 1   
    23    14    15 ar  
    24    14    36 1   
    25    15    16 ar  
    26    15    37 1   
    27    16    38 1   
    28    17    18 1   
    29    17    22 1   
    30    17    39 1   
    31    18    19 1   
    32    18    40 1   
    33    18    41 1   
    34    19    20 1   
    35    19    42 1   
    36    19    43 1   
    37    20    21 1   
    38    20    23 1   
    39    20    44 1   
    40    21    22 1   
    41    21    45 1   
    42    21    46 1   
    43    22    47 1   
    44    22    48 1   
    45    23    49 1   
    46    24    25 1   
    47    25    26 1   
    48    25    50 1   
    49    25    51 1   
    50    26    27 1   
    51    26    52 1   
    52    26    53 1   
    53    27    28 1   
    54    27    54 1   
    55    27    55 1   
    56    28    29 1   
    57    28    30 2   
    58    28    31 2   
    59    29    56 1   
    60    29    57 1   
    61    29    58 1   
@<TRIPOS>SUBSTRUCTURE
     1 1BK         1 TEMP              0 ****  ****    0 ROOT
