@<TRIPOS>MOLECULE
1BL
   81    83     1     0     0
SMALL
bcc


@<TRIPOS>ATOM
      1 C2           0.0000     0.0000     0.0000 ca         1 1BL      -0.142500
      2 C3           1.3820     0.0000     0.0000 ca         1 1BL      -0.025300
      3 C5           1.3830     0.0020     2.3970 ca         1 1BL       0.146400
      4 C4           2.0740     0.0000     1.1960 ca         1 1BL      -0.142500
      5 C10          2.3900     1.4390    -1.7490 c3         1 1BL       0.008700
      6 C11          3.2650     1.4390    -3.0040 c3         1 1BL       0.181100
      7 C12          4.6360     0.8450    -2.6710 c3         1 1BL       0.088800
      8 C9           2.1350    -0.0030    -1.3060 c3         1 1BL       0.005900
      9 C1          -0.6930     0.0070     1.1990 ca         1 1BL       0.146400
     10 C6          -0.0010     0.0130     2.3970 ca         1 1BL      -0.162000
     11 O24          0.8180     2.6310     0.0870 o          1 1BL      -0.632100
     12 C18         -0.9130     3.3330    -1.3560 c3         1 1BL      -0.103400
     13 C19         -1.5120     3.8920    -0.0630 c3         1 1BL      -0.006400
     14 C20         -2.8460     4.5740    -0.3720 c3         1 1BL       0.077100
     15 O41         -3.7840     3.5990    -0.8320 oh         1 1BL      -0.593800
     16 C21         -3.3750     5.2300     0.8780 c          1 1BL       0.955600
     17 O23         -4.4020     4.8350     1.3790 o          1 1BL      -0.889300
     18 O22         -2.7070     6.2520     1.4350 o          1 1BL      -0.889300
     19 N16          1.1120     2.0920    -2.0450 ns         1 1BL      -0.223900
     20 F8           2.0600     0.0030     3.5660 f          1 1BL      -0.126900
     21 F7          -2.0430     0.0080     1.1980 f          1 1BL      -0.126900
     22 O40          2.6400     0.6530    -4.0210 oh         1 1BL      -0.576800
     23 N13          5.5080     0.9350    -3.8490 n7         1 1BL      -0.586200
     24 C14          6.8480     0.4140    -3.5530 c3         1 1BL       0.171500
     25 C29          7.4640     1.2130    -2.4020 c3         1 1BL      -0.046400
     26 C28          7.5680     2.6860    -2.8020 c3         1 1BL      -0.032400
     27 C27          8.4510     2.8160    -4.0440 c3         1 1BL      -0.026400
     28 C26          7.8360     2.0170    -5.1950 c3         1 1BL      -0.032400
     29 C25          7.7330     0.5430    -4.7940 c3         1 1BL      -0.046400
     30 C30          6.7470    -1.0370    -3.1580 ca         1 1BL      -0.085300
     31 C35          5.7280    -1.8220    -3.6670 ca         1 1BL      -0.084000
     32 C34          5.6340    -3.1520    -3.3050 ca         1 1BL      -0.077300
     33 C36          4.5250    -4.0080    -3.8590 c3         1 1BL      -0.011700
     34 C39          3.1760    -3.3540    -3.5550 c3         1 1BL       0.001567
     35 C38          4.6940    -4.1440    -5.3740 c3         1 1BL       0.001567
     36 C37          4.5770    -5.3940    -3.2130 c3         1 1BL       0.001567
     37 C33          6.5590    -3.6990    -2.4350 ca         1 1BL      -0.117000
     38 C32          7.5780    -2.9150    -1.9270 ca         1 1BL      -0.101000
     39 C31          7.6740    -1.5850    -2.2930 ca         1 1BL      -0.117000
     40 H1          -0.5410    -0.0030    -0.9380 ha         1 1BL       0.117000
     41 H2           3.1580    -0.0040     1.1950 ha         1 1BL       0.117000
     42 H3           2.8960     1.9770    -0.9560 h1         1 1BL       0.063700
     43 H4           3.3880     2.4560    -3.3580 h1         1 1BL       0.001700
     44 H5           4.5200    -0.1930    -2.3860 h1         1 1BL       0.038700
     45 H6           5.0790     1.3980    -1.8510 h1         1 1BL       0.038700
     46 H7           1.5490    -0.5140    -2.0590 hc         1 1BL       0.031700
     47 H8           3.0810    -0.5140    -1.1750 hc         1 1BL       0.031700
     48 H9          -0.5420     0.0170     3.3360 ha         1 1BL       0.132000
     49 H10         -1.5960     2.6120    -1.7880 hc         1 1BL       0.024700
     50 H11         -0.7500     4.1420    -2.0570 hc         1 1BL       0.024700
     51 H12         -1.6740     3.0820     0.6390 hc         1 1BL       0.044200
     52 H13         -0.8290     4.6130     0.3690 hc         1 1BL       0.044200
     53 H14         -2.6980     5.3240    -1.1390 h1         1 1BL      -0.017300
     54 H15         -4.4190     4.0140    -1.3920 ho         1 1BL       0.370000
     55 H17          0.7820     2.1420    -2.9880 hn         1 1BL       0.171500
     56 H18          2.4480     1.1980    -4.7660 ho         1 1BL       0.387000
     57 H19          5.5780     1.8900    -4.1400 hn         1 1BL       0.266800
     58 H21          6.8360     1.1220    -1.5240 hc         1 1BL       0.028950
     59 H22          8.4530     0.8280    -2.1860 hc         1 1BL       0.028950
     60 H23          8.0060     3.2490    -1.9880 hc         1 1BL       0.017200
     61 H24          6.5790     3.0690    -3.0220 hc         1 1BL       0.017200
     62 H25          9.4390     2.4280    -3.8250 hc         1 1BL       0.013200
     63 H26          8.5220     3.8590    -4.3270 hc         1 1BL       0.013200
     64 H27          8.4640     2.1080    -6.0720 hc         1 1BL       0.017200
     65 H28          6.8470     2.4010    -5.4110 hc         1 1BL       0.017200
     66 H29          7.2960    -0.0210    -5.6090 hc         1 1BL       0.028950
     67 H30          8.7220     0.1610    -4.5730 hc         1 1BL       0.028950
     68 H31          5.0450    -1.4110    -4.4010 ha         1 1BL       0.140000
     69 H32          3.0410    -2.4890    -4.1930 hc         1 1BL       0.008367
     70 H33          2.3800    -4.0650    -3.7380 hc         1 1BL       0.008367
     71 H34          3.1510    -3.0440    -2.5170 hc         1 1BL       0.008367
     72 H35          5.7200    -4.4100    -5.6000 hc         1 1BL       0.008367
     73 H36          4.0310    -4.9180    -5.7430 hc         1 1BL       0.008367
     74 H37          4.4510    -3.2030    -5.8510 hc         1 1BL       0.008367
     75 H38          4.4970    -5.2940    -2.1380 hc         1 1BL       0.008367
     76 H39          3.7550    -5.9950    -3.5820 hc         1 1BL       0.008367
     77 H40          5.5160    -5.8730    -3.4630 hc         1 1BL       0.008367
     78 H41          6.4850    -4.7420    -2.1500 ha         1 1BL       0.116000
     79 H42          8.3040    -3.3440    -1.2470 ha         1 1BL       0.099000
     80 H43          8.4720    -0.9700    -1.8950 ha         1 1BL       0.111000
     81 C17          0.4000     2.6610    -1.0510 c          1 1BL       0.572100
@<TRIPOS>BOND
     1     1     2 ar  
     2     1     9 ar  
     3     1    40 1   
     4     2     4 ar  
     5     2     8 1   
     6     3     4 ar  
     7     3    10 ar  
     8     3    20 1   
     9     4    41 1   
    10     5     6 1   
    11     5     8 1   
    12     5    19 1   
    13     5    42 1   
    14     6     7 1   
    15     6    22 1   
    16     6    43 1   
    17     7    23 1   
    18     7    44 1   
    19     7    45 1   
    20     8    46 1   
    21     8    47 1   
    22     9    10 ar  
    23     9    21 1   
    24    10    48 1   
    25    11    81 2   
    26    12    13 1   
    27    12    49 1   
    28    12    50 1   
    29    12    81 1   
    30    13    14 1   
    31    13    51 1   
    32    13    52 1   
    33    14    15 1   
    34    14    16 1   
    35    14    53 1   
    36    15    54 1   
    37    16    17 1   
    38    16    18 1   
    39    19    55 1   
    40    19    81 1   
    41    22    56 1   
    42    23    24 1   
    43    23    57 1   
    44    24    25 1   
    45    24    29 1   
    46    24    30 1   
    47    25    26 1   
    48    25    58 1   
    49    25    59 1   
    50    26    27 1   
    51    26    60 1   
    52    26    61 1   
    53    27    28 1   
    54    27    62 1   
    55    27    63 1   
    56    28    29 1   
    57    28    64 1   
    58    28    65 1   
    59    29    66 1   
    60    29    67 1   
    61    30    31 ar  
    62    30    39 ar  
    63    31    32 ar  
    64    31    68 1   
    65    32    33 1   
    66    32    37 ar  
    67    33    34 1   
    68    33    35 1   
    69    33    36 1   
    70    34    69 1   
    71    34    70 1   
    72    34    71 1   
    73    35    72 1   
    74    35    73 1   
    75    35    74 1   
    76    36    75 1   
    77    36    76 1   
    78    36    77 1   
    79    37    38 ar  
    80    37    78 1   
    81    38    39 ar  
    82    38    79 1   
    83    39    80 1   
@<TRIPOS>SUBSTRUCTURE
     1 1BL         1 TEMP              0 ****  ****    0 ROOT
