@<TRIPOS>MOLECULE
1BL
   83    85     1     0     0
SMALL
bcc


@<TRIPOS>ATOM
      1 C2          -0.0390    -0.0870     0.8850 ca         1 1BL      -0.183500
      2 C3           1.1980     0.2570     1.4350 ca         1 1BL      -0.082300
      3 C5           0.2240     0.2390     3.6550 ca         1 1BL       0.172900
      4 C4           1.3400     0.4160     2.8150 ca         1 1BL      -0.183500
      5 C10          2.9490     1.7970     0.4100 c3         1 1BL       0.103500
      6 C11          4.2730     1.6850    -0.4170 c3         1 1BL       0.118100
      7 C12          4.9640     3.0350    -0.7210 c3         1 1BL       0.085800
      8 C9           2.3900     0.3700     0.5540 c3         1 1BL      -0.055100
      9 C1          -1.1510    -0.2630     1.7310 ca         1 1BL       0.172900
     10 C6          -1.0310    -0.1010     3.1210 ca         1 1BL      -0.186000
     11 O24          1.0350     3.4120     1.7450 o          1 1BL      -0.436100
     12 C18         -0.3540     3.7750    -0.2180 c3         1 1BL      -0.157400
     13 C19         -0.4820     3.5050    -1.7000 c3         1 1BL      -0.097400
     14 C20          0.2790     4.4810    -2.6070 c3         1 1BL       0.058100
     15 O41          0.0230     5.7930    -2.1350 oh         1 1BL      -0.606800
     16 C21          1.7620     4.1590    -2.6190 c          1 1BL       0.850600
     17 O23          2.5910     4.9740    -2.0840 o          1 1BL      -0.866300
     18 O22          2.2140     3.0300    -2.9970 o          1 1BL      -0.866300
     19 N16          1.9930     2.7230    -0.2620 ny         1 1BL      -0.697800
     20 F8           0.3620     0.3950     4.9890 f          1 1BL      -0.114400
     21 F7          -2.3470    -0.5920     1.1950 f          1 1BL      -0.114400
     22 O40          5.2090     0.9880     0.3840 oh         1 1BL      -0.571800
     23 N13          4.9920     3.3810    -2.1600 ny         1 1BL      -0.792000
     24 C14          6.0560     4.4410    -2.5110 c3         1 1BL       0.228500
     25 C29          5.8300     5.6900    -1.6340 c3         1 1BL      -0.095900
     26 C28          6.7220     6.8420    -2.0510 c3         1 1BL      -0.075900
     27 C27          6.5360     7.2010    -3.5090 c3         1 1BL      -0.085400
     28 C26          6.7330     5.9850    -4.3870 c3         1 1BL      -0.075900
     29 C25          5.7970     4.8660    -3.9790 c3         1 1BL      -0.095900
     30 C30          7.4060     3.7870    -2.3390 ca         1 1BL      -0.150300
     31 C35          7.8210     2.8180    -3.2630 ca         1 1BL      -0.129000
     32 C34          9.0660     2.1840    -3.1530 ca         1 1BL      -0.049300
     33 C36          9.4640     1.1640    -4.1880 c3         1 1BL      -0.015700
     34 C39          8.4500     0.0240    -4.1970 c3         1 1BL      -0.088767
     35 C38          9.4950     1.8250    -5.5640 c3         1 1BL      -0.088767
     36 C37         10.8420     0.5710    -3.9150 c3         1 1BL      -0.088767
     37 C33          9.9000     2.5290    -2.0820 ca         1 1BL      -0.095000
     38 C32          9.4890     3.4790    -1.1490 ca         1 1BL      -0.121000
     39 C31          8.2490     4.1030    -1.2670 ca         1 1BL      -0.115000
     40 C17          0.8550     3.3010     0.5400 c          1 1BL       0.565100
     41 H1          -0.1560    -0.2530    -0.1960 ha         1 1BL       0.156500
     42 H2           2.3130     0.6730     3.2590 ha         1 1BL       0.156500
     43 H3           3.1780     2.2140     1.4360 hx         1 1BL       0.136700
     44 H4           4.0450     1.1170    -1.3650 h1         1 1BL       0.073700
     45 H5           4.4800     3.8850    -0.1640 hx         1 1BL       0.120700
     46 H6           6.0360     2.9620    -0.3520 hx         1 1BL       0.120700
     47 H7           3.2130    -0.2550     1.0030 hc         1 1BL       0.083200
     48 H8           2.1620    -0.0510    -0.4640 hc         1 1BL       0.083200
     49 H9          -1.9010    -0.2450     3.7800 ha         1 1BL       0.185000
     50 H10         -0.3970     4.8970    -0.0580 hc         1 1BL       0.132700
     51 H11         -1.2380     3.3230     0.3190 hc         1 1BL       0.132700
     52 H12         -1.5760     3.6260    -1.9450 hc         1 1BL       0.078200
     53 H13         -0.2020     2.4570    -1.9780 hc         1 1BL       0.078200
     54 H14         -0.1270     4.3960    -3.6560 h1         1 1BL       0.090700
     55 H15          0.8360     6.3120    -2.2350 ho         1 1BL       0.440000
     56 H17          2.5260     3.5540    -0.5920 hn         1 1BL       0.485300
     57 H18          5.1450     0.0460     0.1750 ho         1 1BL       0.434000
     58 H19          5.1950     2.5460    -2.7160 hn         1 1BL       0.473300
     59 H21          6.0160     5.4520    -0.5540 hc         1 1BL       0.068200
     60 H22          4.7530     6.0080    -1.7360 hc         1 1BL       0.068200
     61 H23          6.4770     7.7300    -1.4100 hc         1 1BL       0.061700
     62 H24          7.7980     6.5800    -1.8680 hc         1 1BL       0.061700
     63 H25          5.5070     7.6210    -3.6680 hc         1 1BL       0.060200
     64 H26          7.2730     7.9960    -3.7960 hc         1 1BL       0.060200
     65 H27          7.7960     5.6330    -4.3210 hc         1 1BL       0.061700
     66 H28          6.5280     6.2520    -5.4570 hc         1 1BL       0.061700
     67 H29          5.9250     3.9980    -4.6750 hc         1 1BL       0.068200
     68 H30          4.7350     5.2280    -4.0710 hc         1 1BL       0.068200
     69 H31          7.1710     2.5490    -4.1120 ha         1 1BL       0.134000
     70 H32          7.4320     0.4000    -4.4580 hc         1 1BL       0.042256
     71 H33          8.7470    -0.7400    -4.9570 hc         1 1BL       0.042256
     72 H34          8.4080    -0.4670    -3.1960 hc         1 1BL       0.042256
     73 H35         10.2250     2.6690    -5.5720 hc         1 1BL       0.042256
     74 H36          9.8030     1.0780    -6.3350 hc         1 1BL       0.042256
     75 H37          8.4870     2.2190    -5.8380 hc         1 1BL       0.042256
     76 H38         10.8620     0.0560    -2.9250 hc         1 1BL       0.042256
     77 H39         11.0890    -0.1790    -4.7050 hc         1 1BL       0.042256
     78 H40         11.6240     1.3670    -3.9330 hc         1 1BL       0.042256
     79 H41         10.8890     2.0590    -1.9620 ha         1 1BL       0.157000
     80 H42         10.1530     3.7430    -0.3100 ha         1 1BL       0.152000
     81 H43          7.9590     4.8510    -0.5130 ha         1 1BL       0.143000
     82 H162         1.6160     2.2550    -1.1070 hn         1 1BL       0.485300
     83 H132         4.0590     3.7570    -2.4620 hn         1 1BL       0.473300
@<TRIPOS>BOND
     1     1     2 ar  
     2     1     9 ar  
     3     1    41 1   
     4     2     4 ar  
     5     2     8 1   
     6     3     4 ar  
     7     3    10 ar  
     8     3    20 1   
     9     4    42 1   
    10     5     6 1   
    11     5     8 1   
    12     5    19 1   
    13     5    43 1   
    14     6     7 1   
    15     6    22 1   
    16     6    44 1   
    17     7    23 1   
    18     7    45 1   
    19     7    46 1   
    20     8    47 1   
    21     8    48 1   
    22     9    10 ar  
    23     9    21 1   
    24    10    49 1   
    25    11    40 2   
    26    12    13 1   
    27    12    40 1   
    28    12    50 1   
    29    12    51 1   
    30    13    14 1   
    31    13    52 1   
    32    13    53 1   
    33    14    15 1   
    34    14    16 1   
    35    14    54 1   
    36    15    55 1   
    37    16    17 1   
    38    16    18 1   
    39    19    40 1   
    40    19    56 1   
    41    19    82 1   
    42    22    57 1   
    43    23    24 1   
    44    23    58 1   
    45    23    83 1   
    46    24    25 1   
    47    24    29 1   
    48    24    30 1   
    49    25    26 1   
    50    25    59 1   
    51    25    60 1   
    52    26    27 1   
    53    26    61 1   
    54    26    62 1   
    55    27    28 1   
    56    27    63 1   
    57    27    64 1   
    58    28    29 1   
    59    28    65 1   
    60    28    66 1   
    61    29    67 1   
    62    29    68 1   
    63    30    31 ar  
    64    30    39 ar  
    65    31    32 ar  
    66    31    69 1   
    67    32    33 1   
    68    32    37 ar  
    69    33    34 1   
    70    33    35 1   
    71    33    36 1   
    72    34    70 1   
    73    34    71 1   
    74    34    72 1   
    75    35    73 1   
    76    35    74 1   
    77    35    75 1   
    78    36    76 1   
    79    36    77 1   
    80    36    78 1   
    81    37    38 ar  
    82    37    79 1   
    83    38    39 ar  
    84    38    80 1   
    85    39    81 1   
@<TRIPOS>SUBSTRUCTURE
     1 1BL         1 TEMP              0 ****  ****    0 ROOT
