@<TRIPOS>MOLECULE
1BM
   62    65     1     0     0
SMALL
bcc


@<TRIPOS>ATOM
      1 O21         -0.0620     1.6330    -0.2840 oh         1 1BM      -0.535100
      2 C17          1.1290     0.9340    -0.2620 ca         1 1BM       0.125100
      3 C13          1.5730     0.2330     0.8650 ca         1 1BM      -0.204000
      4 C16          2.8050    -0.4110     0.8080 ca         1 1BM      -0.062000
      5 C15          3.6130    -0.3530    -0.3310 ca         1 1BM      -0.118300
      6 C19          4.9210    -1.0490    -0.3380 c3         1 1BM      -0.060800
      7 C14          1.8910     0.9860    -1.4330 ca         1 1BM      -0.208000
      8 C11          3.1570     0.3670    -1.4670 ca         1 1BM       0.180600
      9 N3           3.9510     0.4080    -2.6260 nu         1 1BM      -0.748300
     10 C2           4.0820     1.5180    -3.4490 ca         1 1BM       0.763200
     11 N1           4.7320     1.3360    -4.6410 nb         1 1BM      -0.811000
     12 C9           3.5730     2.7980    -3.0660 ca         1 1BM      -0.528600
     13 C8           3.7130     3.8580    -3.9900 ca         1 1BM       0.692200
     14 N10          3.1040     5.1160    -3.7560 nu         1 1BM      -0.877900
     15 C27          2.6460     5.4510    -2.4380 c3         1 1BM       0.175800
     16 C30          1.2240     4.9260    -2.1170 c3         1 1BM       0.084800
     17 N34          0.2320     5.1450    -3.2190 nx         1 1BM      -0.675400
     18 C36         -1.0330     5.7530    -2.6920 c3         1 1BM       0.110800
     19 C42         -2.0080     6.1610    -3.7760 c3         1 1BM      -0.135100
     20 C35         -0.0190     3.8840    -4.0000 c3         1 1BM       0.110800
     21 C38         -0.8920     2.8570    -3.3140 c3         1 1BM      -0.135100
     22 N6           4.3680     3.7100    -5.1820 nb         1 1BM      -0.798000
     23 C5           4.8650     2.4480    -5.4520 ca         1 1BM       0.845500
     24 N7           5.5560     2.2620    -6.6570 na         1 1BM      -0.220100
     25 C49          5.8650     3.2090    -7.6680 ca         1 1BM      -0.050200
     26 C54          5.6280     4.5730    -7.8230 ca         1 1BM      -0.114000
     27 C53          6.5840     2.4610    -8.6870 ca         1 1BM       0.069400
     28 N51          6.6990     1.1020    -8.2910 nc         1 1BM      -0.535100
     29 C50          6.0990     1.0110    -7.1130 cd         1 1BM       0.461700
     30 C55          7.0420     3.1040    -9.8370 ca         1 1BM      -0.063000
     31 C56          6.7910     4.4670    -9.9700 ca         1 1BM      -0.137000
     32 C58          6.1020     5.1820    -8.9850 ca         1 1BM      -0.117000
     33 HO21        -0.5780     1.3630     0.4900 ho         1 1BM       0.436000
     34 H13          0.9580     0.1850     1.7750 ha         1 1BM       0.150000
     35 H16          3.1570    -0.9770     1.6880 ha         1 1BM       0.154000
     36 H191         4.9210    -1.8790    -1.0890 hc         1 1BM       0.055700
     37 H192         5.7480    -0.3400    -0.5950 hc         1 1BM       0.055700
     38 H193         5.1460    -1.4930     0.6630 hc         1 1BM       0.055700
     39 H14          1.4780     1.4900    -2.3190 ha         1 1BM       0.139000
     40 HN3          4.4850    -0.4100    -2.8350 hn         1 1BM       0.472800
     41 H9           3.1550     2.9460    -2.0660 ha         1 1BM       0.156000
     42 HN10         3.5370     5.8780    -4.2430 hn         1 1BM       0.442800
     43 H271         3.3130     5.0440    -1.6200 h1         1 1BM       0.082200
     44 H272         2.6390     6.5760    -2.3430 h1         1 1BM       0.082200
     45 H301         1.2590     3.8200    -1.8880 hx         1 1BM       0.111200
     46 H302         0.8730     5.4600    -1.1880 hx         1 1BM       0.111200
     47 H361        -0.7420     6.6640    -2.0910 hx         1 1BM       0.102200
     48 H362        -1.5110     5.0040    -1.9970 hx         1 1BM       0.102200
     49 H421        -2.8670     6.6890    -3.2870 hc         1 1BM       0.077533
     50 H422        -1.5430     6.8610    -4.5130 hc         1 1BM       0.077533
     51 H423        -2.4110     5.2740    -4.3230 hc         1 1BM       0.077533
     52 H351        -0.4980     4.1970    -4.9730 hx         1 1BM       0.102200
     53 H352         0.9940     3.4330    -4.2270 hx         1 1BM       0.102200
     54 H381        -1.9540     3.2000    -3.2490 hc         1 1BM       0.077533
     55 H382        -0.5300     2.6000    -2.2870 hc         1 1BM       0.077533
     56 H383        -0.8660     1.9230    -3.9320 hc         1 1BM       0.077533
     57 H54          5.0960     5.1680    -7.0710 ha         1 1BM       0.149000
     58 H50          6.0030     0.0950    -6.5120 h5         1 1BM       0.094800
     59 H55          7.5870     2.5440   -10.6110 ha         1 1BM       0.160000
     60 H56          7.1460     4.9940   -10.8700 ha         1 1BM       0.144000
     61 H58          5.9280     6.2600    -9.1280 ha         1 1BM       0.137000
     62 H341         0.6360     5.8190    -3.8860 hn         1 1BM       0.449800
@<TRIPOS>BOND
     1     1     2 1   
     2     1    33 1   
     3     2     3 ar  
     4     2     7 ar  
     5     3     4 ar  
     6     3    34 1   
     7     4     5 ar  
     8     4    35 1   
     9     5     6 1   
    10     5     8 ar  
    11     6    36 1   
    12     6    37 1   
    13     6    38 1   
    14     7     8 ar  
    15     7    39 1   
    16     8     9 1   
    17     9    10 1   
    18     9    40 1   
    19    10    11 ar  
    20    10    12 ar  
    21    11    23 ar  
    22    12    13 ar  
    23    12    41 1   
    24    13    14 1   
    25    13    22 ar  
    26    14    15 1   
    27    14    42 1   
    28    15    16 1   
    29    15    43 1   
    30    15    44 1   
    31    16    17 1   
    32    16    45 1   
    33    16    46 1   
    34    17    18 1   
    35    17    20 1   
    36    17    62 1   
    37    18    19 1   
    38    18    47 1   
    39    18    48 1   
    40    19    49 1   
    41    19    50 1   
    42    19    51 1   
    43    20    21 1   
    44    20    52 1   
    45    20    53 1   
    46    21    54 1   
    47    21    55 1   
    48    21    56 1   
    49    22    23 ar  
    50    23    24 1   
    51    24    25 1   
    52    24    29 1   
    53    25    26 ar  
    54    25    27 ar  
    55    26    32 ar  
    56    26    57 1   
    57    27    28 1   
    58    27    30 ar  
    59    28    29 2   
    60    29    58 1   
    61    30    31 ar  
    62    30    59 1   
    63    31    32 ar  
    64    31    60 1   
    65    32    61 1   
@<TRIPOS>SUBSTRUCTURE
     1 1BM         1 TEMP              0 ****  ****    0 ROOT
