@<TRIPOS>MOLECULE
molecule
   61    64     1     0     0
SMALL
bcc


@<TRIPOS>ATOM
      1 O21          0.0000     0.0000     0.0000 oh         1 1BM      -0.518100
      2 C17          1.3580     0.0000     0.0000 ca         1 1BM       0.118100
      3 C13          2.0530     0.0000     1.2020 ca         1 1BM      -0.168000
      4 C16          3.4350    -0.0000     1.2020 ca         1 1BM      -0.096000
      5 C15          4.1290    -0.0050     0.0090 ca         1 1BM      -0.118300
      6 C19          5.6360    -0.0060     0.0140 c3         1 1BM      -0.045800
      7 C14          2.0520     0.0000    -1.2010 ca         1 1BM      -0.175000
      8 C11          3.4390     0.0000    -1.1970 ca         1 1BM       0.163600
      9 N3           4.1410     0.0010    -2.4060 nu         1 1BM      -0.766300
     10 C2           3.7350     0.8240    -3.4450 ca         1 1BM       0.774200
     11 N1           4.2820     0.7070    -4.6530 nb         1 1BM      -0.864000
     12 C9           2.7490     1.7850    -3.2390 ca         1 1BM      -0.527600
     13 C8           2.3730     2.5870    -4.3120 ca         1 1BM       0.782200
     14 N10          1.3940     3.5570    -4.1540 nu         1 1BM      -0.906900
     15 C27          0.8310     3.8210    -2.8280 c3         1 1BM       0.235800
     16 C30         -0.2410     4.9080    -2.9360 c3         1 1BM       0.115800
     17 N34         -0.9070     5.0670    -1.6370 n3         1 1BM      -0.664600
     18 C36          0.0040     5.8450    -0.7870 c3         1 1BM       0.128800
     19 C42         -0.5110     5.8380     0.6540 c3         1 1BM      -0.094100
     20 C35         -2.0890     5.9110    -1.8690 c3         1 1BM       0.128800
     21 C38         -3.1310     5.1200    -2.6630 c3         1 1BM      -0.094100
     22 N6           2.9600     2.4090    -5.4930 nb         1 1BM      -0.870000
     23 C5           3.8980     1.4880    -5.6500 ca         1 1BM       0.867500
     24 N7           4.4950     1.3350    -6.8990 na         1 1BM      -0.173100
     25 C49          5.4850     0.4270    -7.2300 ca         1 1BM      -0.073200
     26 C54          6.1630    -0.5600    -6.5300 ca         1 1BM      -0.102000
     27 C53          5.7660     0.6400    -8.5900 ca         1 1BM       0.092400
     28 N51          4.9590     1.6490    -9.0090 nc         1 1BM      -0.600100
     29 C50          4.2160     2.0560    -8.0230 cd         1 1BM       0.465700
     30 C55          6.7370    -0.1400    -9.2230 ca         1 1BM      -0.078000
     31 C56          7.4040    -1.1110    -8.5100 ca         1 1BM      -0.141000
     32 C58          7.1170    -1.3210    -7.1690 ca         1 1BM      -0.127000
     33 HO21        -0.3140    -0.8870     0.0590 ho         1 1BM       0.422000
     34 H13          1.5120     0.0040     2.1400 ha         1 1BM       0.143000
     35 H16          3.9750    -0.0000     2.1420 ha         1 1BM       0.138000
     36 H191         5.9980    -0.9270    -0.4270 hc         1 1BM       0.045700
     37 H192         5.9940     0.0710     1.0330 hc         1 1BM       0.045700
     38 H193         6.0000     0.8370    -0.5620 hc         1 1BM       0.045700
     39 H14          1.5110     0.0050    -2.1400 ha         1 1BM       0.161000
     40 HN3          4.9190    -0.6170    -2.5330 hn         1 1BM       0.462800
     41 H9           2.4630     2.0600    -2.2310 ha         1 1BM       0.163000
     42 HN10         1.0740     4.0780    -4.9460 hn         1 1BM       0.450800
     43 H271         0.3870     2.9140    -2.4370 h1         1 1BM       0.057200
     44 H272         1.6180     4.1540    -2.1630 h1         1 1BM       0.057200
     45 H301        -0.9700     4.6230    -3.6840 h1         1 1BM       0.044700
     46 H302         0.2220     5.8450    -3.2210 h1         1 1BM       0.044700
     47 H361         0.0540     6.8650    -1.1480 h1         1 1BM       0.037950
     48 H362         0.9930     5.4020    -0.8190 h1         1 1BM       0.037950
     49 H421        -1.0860     4.9360     0.8270 hc         1 1BM       0.041367
     50 H422         0.3280     5.8690     1.3380 hc         1 1BM       0.041367
     51 H423        -1.1410     6.7050     0.8160 hc         1 1BM       0.041367
     52 H351        -1.7990     6.7910    -2.4300 h1         1 1BM       0.037950
     53 H352        -2.5110     6.2110    -0.9180 h1         1 1BM       0.037950
     54 H381        -3.0340     5.3510    -3.7170 hc         1 1BM       0.041367
     55 H382        -2.9730     4.0590    -2.5100 hc         1 1BM       0.041367
     56 H383        -4.1240     5.3900    -2.3240 hc         1 1BM       0.041367
     57 H54          5.9440    -0.7300    -5.4830 ha         1 1BM       0.153000
     58 H50          3.4820     2.8510    -8.0850 h5         1 1BM       0.090800
     59 H55          6.9650     0.0190   -10.2700 ha         1 1BM       0.142000
     60 H56          8.1570    -1.7170    -9.0000 ha         1 1BM       0.132000
     61 H58          7.6490    -2.0890    -6.6190 ha         1 1BM       0.131000
@<TRIPOS>BOND
     1     1     2 1
     2     1    33 1
     3     2     3 ar
     4     2     7 ar
     5     3     4 ar
     6     3    34 1
     7     4     5 ar
     8     4    35 1
     9     5     6 1
    10     5     8 ar
    11     6    36 1
    12     6    37 1
    13     6    38 1
    14     7     8 ar
    15     7    39 1
    16     8     9 1
    17     9    10 1
    18     9    40 1
    19    10    11 ar
    20    10    12 ar
    21    11    23 ar
    22    12    13 ar
    23    12    41 1
    24    13    14 1
    25    13    22 ar
    26    14    15 1
    27    14    42 1
    28    15    16 1
    29    15    43 1
    30    15    44 1
    31    16    17 1
    32    16    45 1
    33    16    46 1
    34    17    18 1
    35    17    20 1
    36    18    19 1
    37    18    47 1
    38    18    48 1
    39    19    49 1
    40    19    50 1
    41    19    51 1
    42    20    21 1
    43    20    52 1
    44    20    53 1
    45    21    54 1
    46    21    55 1
    47    21    56 1
    48    22    23 ar
    49    23    24 1
    50    24    25 1
    51    24    29 1
    52    25    26 ar
    53    25    27 ar
    54    26    32 ar
    55    26    57 1
    56    27    28 1
    57    27    30 ar
    58    28    29 2
    59    29    58 1
    60    30    31 ar
    61    30    59 1
    62    31    32 ar
    63    31    60 1
    64    32    61 1
@<TRIPOS>SUBSTRUCTURE
     1 1BM         1 TEMP              0 ****  ****    0 ROOT
