@<TRIPOS>MOLECULE
1BN
   22    23     1     0     0
SMALL
bcc


@<TRIPOS>ATOM
      1 C1         -0.3350    0.3100   -0.1190 cc        1 1BN     -0.261600
      2 C2          1.0260    0.3010   -0.4770 cd        1 1BN      0.291200
      3 N1         -0.3780    0.0320    1.2520 na        1 1BN     -0.207900
      4 C3          0.9520   -0.1560    1.6640 cc        1 1BN      0.394400
      5 N2          1.8120    0.0120    0.6380 nd        1 1BN     -0.668000
      6 C4         -1.5560   -0.1150    2.0540 c3        1 1BN      0.088600
      7 C5         -2.1000   -1.5130    2.1550 ca        1 1BN     -0.118300
      8 C6         -2.4200   -2.0360    3.4120 ca        1 1BN     -0.113500
      9 C7         -2.3260   -2.2800    1.0080 ca        1 1BN     -0.113500
     10 C8         -2.9680   -3.3140    3.5180 ca        1 1BN     -0.128000
     11 C9         -2.8700   -3.5580    1.1180 ca        1 1BN     -0.128000
     12 C10        -3.1930   -4.0760    2.3720 ca        1 1BN     -0.120000
     13 H1         -1.2310    0.4970   -0.7050 h4        1 1BN      0.174000
     14 H2          1.4700    0.4870   -1.4530 h4        1 1BN      0.041100
     15 H3          1.2210   -0.3980    2.6970 h5        1 1BN      0.060100
     16 H41        -2.3630    0.5430    1.6140 h1        1 1BN      0.066700
     17 H42        -1.3180    0.2690    3.0890 h1        1 1BN      0.066700
     18 H6         -2.2410   -1.4420    4.3200 ha        1 1BN      0.135000
     19 H7         -2.0680   -1.8750    0.0170 ha        1 1BN      0.135000
     20 H8         -3.2200   -3.7210    4.5080 ha        1 1BN      0.135500
     21 H9         -3.0430   -4.1590    0.2130 ha        1 1BN      0.135500
     22 H10        -3.6230   -5.0850    2.4580 ha        1 1BN      0.135000
@<TRIPOS>BOND
     1    1    2 2   
     2    1    3 1   
     3    1   13 1   
     4    2    5 1   
     5    2   14 1   
     6    3    4 1   
     7    3    6 1   
     8    4    5 2   
     9    4   15 1   
    10    6    7 1   
    11    6   16 1   
    12    6   17 1   
    13    7    8 ar  
    14    7    9 ar  
    15    8   10 ar  
    16    8   18 1   
    17    9   11 ar  
    18    9   19 1   
    19   10   12 ar  
    20   10   20 1   
    21   11   12 ar  
    22   11   21 1   
    23   12   22 1   
@<TRIPOS>SUBSTRUCTURE
     1 1BN         1 TEMP              0 ****  ****    0 ROOT
