@<TRIPOS>MOLECULE
1BN
   22    23     1     0     0
SMALL
bcc


@<TRIPOS>ATOM
      1 C1           0.0130    -0.2730     0.2820 cc         1 1BN      -0.261600
      2 C2           1.4180    -0.2220     0.2910 cd         1 1BN       0.291200
      3 N1          -0.4060     0.3310     1.4740 na         1 1BN      -0.207900
      4 C3           0.7600     0.7010     2.1650 cc         1 1BN       0.394400
      5 N2           1.8680     0.3850     1.4640 nd         1 1BN      -0.668000
      6 C4          -1.7570     0.4640     1.9320 c3         1 1BN       0.088600
      7 C5          -2.2650    -0.6620     2.7880 ca         1 1BN      -0.118300
      8 C6          -2.1320    -1.9920     2.3770 ca         1 1BN      -0.113500
      9 C7          -2.9150    -0.3710     3.9910 ca         1 1BN      -0.113500
     10 C8          -2.6460    -3.0220     3.1630 ca         1 1BN      -0.128000
     11 C9          -3.4330    -1.4030     4.7730 ca         1 1BN      -0.128000
     12 C10         -3.2980    -2.7280     4.3610 ca         1 1BN      -0.120000
     13 H1          -0.6890    -0.6610    -0.4520 h4         1 1BN       0.174000
     14 H2           2.1130    -0.5780    -0.4680 h4         1 1BN       0.041100
     15 H3           0.7350     1.1910     3.1430 h5         1 1BN       0.060100
     16 H41         -1.8310     1.4330     2.5070 h1         1 1BN       0.066700
     17 H42         -2.4270     0.5440     1.0250 h1         1 1BN       0.066700
     18 H6          -1.6130    -2.2270     1.4340 ha         1 1BN       0.135000
     19 H7          -3.0200     0.6720     4.3240 ha         1 1BN       0.135000
     20 H8          -2.5350    -4.0670     2.8380 ha         1 1BN       0.135500
     21 H9          -3.9450    -1.1690     5.7180 ha         1 1BN       0.135500
     22 H10         -3.7040    -3.5420     4.9810 ha         1 1BN       0.135000
@<TRIPOS>BOND
     1     1     2 2   
     2     1     3 1   
     3     1    13 1   
     4     2     5 1   
     5     2    14 1   
     6     3     4 1   
     7     3     6 1   
     8     4     5 2   
     9     4    15 1   
    10     6     7 1   
    11     6    16 1   
    12     6    17 1   
    13     7     8 ar  
    14     7     9 ar  
    15     8    10 ar  
    16     8    18 1   
    17     9    11 ar  
    18     9    19 1   
    19    10    12 ar  
    20    10    20 1   
    21    11    12 ar  
    22    11    21 1   
    23    12    22 1   
@<TRIPOS>SUBSTRUCTURE
     1 1BN         1 TEMP              0 ****  ****    0 ROOT
