@<TRIPOS>MOLECULE
molecule
   22    23     1     0     0
SMALL
bcc


@<TRIPOS>ATOM
      1 C1           0.0000     0.0000     0.0000 cc         1 1BN      -0.276600
      2 C2           1.3470     0.0000     0.0000 cd         1 1BN       0.310200
      3 N1          -0.3960    -0.0010     1.3110 na         1 1BN      -0.184900
      4 C3           0.7240     0.0050     2.0660 cc         1 1BN       0.395400
      5 N2           1.7620     0.0000     1.2750 nd         1 1BN      -0.698000
      6 C4          -1.7760    -0.0010     1.8020 c3         1 1BN       0.092600
      7 C5          -2.2480    -1.4220     1.9700 ca         1 1BN      -0.120300
      8 C6          -2.0640    -2.0740     3.1750 ca         1 1BN      -0.107500
      9 C7          -2.8720    -2.0720     0.9220 ca         1 1BN      -0.107500
     10 C8          -2.4980    -3.3770     3.3300 ca         1 1BN      -0.126500
     11 C9          -3.3020    -3.3770     1.0740 ca         1 1BN      -0.126500
     12 C10         -3.1160    -4.0300     2.2790 ca         1 1BN      -0.116000
     13 H1          -0.6460    -0.0020    -0.8700 h4         1 1BN       0.170000
     14 H2           1.9830    -0.0020    -0.8770 h4         1 1BN       0.039100
     15 H3           0.7560     0.0070     3.1490 h5         1 1BN       0.061100
     16 H41         -1.8210     0.5100     2.7560 h1         1 1BN       0.067200
     17 H42         -2.4130     0.5090     1.0890 h1         1 1BN       0.067200
     18 H6          -1.5800    -1.5630     3.9990 ha         1 1BN       0.130000
     19 H7          -3.0180    -1.5610    -0.0220 ha         1 1BN       0.130000
     20 H8          -2.3530    -3.8880     4.2740 ha         1 1BN       0.134000
     21 H9          -3.7880    -3.8860     0.2510 ha         1 1BN       0.134000
     22 H10         -3.4550    -5.0520     2.3990 ha         1 1BN       0.133000
@<TRIPOS>BOND
     1     1     2 2   
     2     1     3 1   
     3     1    13 1   
     4     2     5 1   
     5     2    14 1   
     6     3     4 1   
     7     3     6 1   
     8     4     5 2   
     9     4    15 1   
    10     6     7 1   
    11     6    16 1   
    12     6    17 1   
    13     7     8 ar  
    14     7     9 ar  
    15     8    10 ar  
    16     8    18 1   
    17     9    11 ar  
    18     9    19 1   
    19    10    12 ar  
    20    10    20 1   
    21    11    12 ar  
    22    11    21 1   
    23    12    22 1   
@<TRIPOS>SUBSTRUCTURE
     1 1BN         1 TEMP              0 ****  ****    0 ROOT
