@<TRIPOS>MOLECULE
1BO
   15    14     1     0     0
SMALL
bcc


@<TRIPOS>ATOM
      1 C1           0.0580    -0.1230    -0.0170 c3         1 1BO      -0.092100
      2 C2           1.5550     0.0350     0.0470 c3         1 1BO      -0.080400
      3 C3           2.0390     0.1680     1.4750 c3         1 1BO      -0.079400
      4 C4           3.5520     0.2750     1.5480 c3         1 1BO       0.131400
      5 OH           4.0900    -1.0090     1.2700 oh         1 1BO      -0.601800
      6 H11         -0.2660    -1.0390     0.5330 hc         1 1BO       0.032367
      7 H12         -0.4520     0.7590     0.4420 hc         1 1BO       0.032367
      8 H13         -0.2770    -0.2120    -1.0780 hc         1 1BO       0.032367
      9 H21          1.8650     0.9390    -0.5400 hc         1 1BO       0.044700
     10 H22          2.0540    -0.8540    -0.4230 hc         1 1BO       0.044700
     11 H31          1.5950     1.0830     1.9460 hc         1 1BO       0.050200
     12 H32          1.7060    -0.7230     2.0690 hc         1 1BO       0.050200
     13 H41          3.8680     0.6000     2.5760 h1         1 1BO       0.019700
     14 H42          3.9340     1.0200     0.7990 h1         1 1BO       0.019700
     15 HO           5.0490    -0.9170     1.2960 ho         1 1BO       0.397000
@<TRIPOS>BOND
     1     1     2 1   
     2     1     6 1   
     3     1     7 1   
     4     1     8 1   
     5     2     3 1   
     6     2     9 1   
     7     2    10 1   
     8     3     4 1   
     9     3    11 1   
    10     3    12 1   
    11     4     5 1   
    12     4    13 1   
    13     4    14 1   
    14     5    15 1   
@<TRIPOS>SUBSTRUCTURE
     1 1BO         1 TEMP              0 ****  ****    0 ROOT
