@<TRIPOS>MOLECULE
molecule
   15    14     1     0     0
SMALL
bcc


@<TRIPOS>ATOM
      1 C1           0.0000     0.0000     0.0000 c3         1 1BO      -0.090100
      2 C2           1.5290     0.0000     0.0000 c3         1 1BO      -0.084400
      3 C3           2.0410     0.0000     1.4410 c3         1 1BO      -0.081400
      4 C4           3.5690    -0.0000     1.4410 c3         1 1BO       0.140400
      5 OH           4.0470    -0.0000     2.7870 oh         1 1BO      -0.612800
      6 H11         -0.3610    -0.0000    -1.0210 hc         1 1BO       0.034367
      7 H12         -0.3610     0.8850     0.5110 hc         1 1BO       0.034367
      8 H13         -0.3610    -0.8850     0.5110 hc         1 1BO       0.034367
      9 H21          1.8900    -0.8840    -0.5110 hc         1 1BO       0.039700
     10 H22          1.8900     0.8840    -0.5110 hc         1 1BO       0.039700
     11 H31          1.6800     0.8840     1.9520 hc         1 1BO       0.053700
     12 H32          1.6800    -0.8840     1.9520 hc         1 1BO       0.053700
     13 H41          3.9300    -0.8840     0.9300 h1         1 1BO       0.017700
     14 H42          3.9300     0.8840     0.9300 h1         1 1BO       0.017700
     15 HO           4.9900    -0.0000     2.7860 ho         1 1BO       0.401000
@<TRIPOS>BOND
     1     1     2 1
     2     1     6 1
     3     1     7 1
     4     1     8 1
     5     2     3 1
     6     2     9 1
     7     2    10 1
     8     3     4 1
     9     3    11 1
    10     3    12 1
    11     4     5 1
    12     4    13 1
    13     4    14 1
    14     5    15 1
@<TRIPOS>SUBSTRUCTURE
     1 1BO         1 TEMP              0 ****  ****    0 ROOT
