@<TRIPOS>MOLECULE
1BO
   15    14     1     0     0
SMALL
bcc


@<TRIPOS>ATOM
      1 C1          0.0130    0.0000    0.0040 c3        1 1BO     -0.092100
      2 C2          1.5200   -0.0000    0.0200 c3        1 1BO     -0.079400
      3 C3          2.0560   -0.0000    1.4340 c3        1 1BO     -0.084400
      4 C4          3.5750    0.0000    1.4320 c3        1 1BO      0.131400
      5 OH          3.9940   -0.0010    2.7870 oh        1 1BO     -0.601800
      6 H11        -0.3870   -0.9050    0.5230 hc        1 1BO      0.034367
      7 H12        -0.3640    0.0000   -1.0470 hc        1 1BO      0.034367
      8 H13        -0.3870    0.9050    0.5230 hc        1 1BO      0.034367
      9 H21         1.9020   -0.9030   -0.5260 hc        1 1BO      0.037700
     10 H22         1.9020    0.9030   -0.5260 hc        1 1BO      0.037700
     11 H31         1.6870    0.9020    1.9890 hc        1 1BO      0.055700
     12 H32         1.6880   -0.9020    1.9890 hc        1 1BO      0.055700
     13 H41         3.9690   -0.9120    0.9090 h1        1 1BO      0.019700
     14 H42         3.9690    0.9130    0.9100 h1        1 1BO      0.019700
     15 HO          4.9580    0.0000    2.7770 ho        1 1BO      0.398000
@<TRIPOS>BOND
     1    1    2 1   
     2    1    6 1   
     3    1    7 1   
     4    1    8 1   
     5    2    3 1   
     6    2    9 1   
     7    2   10 1   
     8    3    4 1   
     9    3   11 1   
    10    3   12 1   
    11    4    5 1   
    12    4   13 1   
    13    4   14 1   
    14    5   15 1   
@<TRIPOS>SUBSTRUCTURE
     1 1BO         1 TEMP              0 ****  ****    0 ROOT
