@<TRIPOS>MOLECULE
1BP
   12    11     1     0     0
SMALL
bcc


@<TRIPOS>ATOM
      1 BR          0.0470   -0.3460    0.0370 br        1 1BP     -0.175400
      2 C1          1.9330    0.0350    0.1120 c3        1 1BP     -0.055000
      3 C2          2.5230   -0.0140    1.5150 c3        1 1BP      0.145100
      4 C3          4.0410   -0.0440    1.4380 c3        1 1BP     -0.094100
      5 O2          2.1840    1.1480    2.2590 oh        1 1BP     -0.594800
      6 H11         2.4330   -0.7200   -0.5370 h1        1 1BP      0.085200
      7 H12         2.0710    1.0530   -0.3230 h1        1 1BP      0.085200
      8 H21         2.1520   -0.9290    2.0600 h1        1 1BP      0.047700
      9 H31         4.4180    0.8270    0.8510 hc        1 1BP      0.049700
     10 H32         4.3740   -0.9900    0.9510 hc        1 1BP      0.049700
     11 H33         4.4680    0.0130    2.4680 hc        1 1BP      0.049700
     12 HO21        1.2230    1.1580    2.3470 ho        1 1BP      0.408000
@<TRIPOS>BOND
     1    1    2 1   
     2    2    3 1   
     3    2    6 1   
     4    2    7 1   
     5    3    4 1   
     6    3    5 1   
     7    3    8 1   
     8    4    9 1   
     9    4   10 1   
    10    4   11 1   
    11    5   12 1   
@<TRIPOS>SUBSTRUCTURE
     1 1BP         1 TEMP              0 ****  ****    0 ROOT
