@<TRIPOS>MOLECULE
molecule
   12    11     1     0     0
SMALL
bcc


@<TRIPOS>ATOM
      1 Br           0.0000     0.0000     0.0000 br         1 1BP      -0.178400
      2 C1           1.9650     0.0000     0.0000 c3         1 1BP      -0.005000
      3 C2           2.4740     0.0000     1.4430 c3         1 1BP       0.143100
      4 C3           4.0050     0.0000     1.4430 c3         1 1BP      -0.108100
      5 O2           1.9980     1.1640     2.1170 oh         1 1BP      -0.596800
      6 H11          2.3260     0.8850    -0.5110 h1         1 1BP       0.079200
      7 H12          2.3260    -0.8850    -0.5110 h1         1 1BP       0.079200
      8 H21          2.1140    -0.8850     1.9530 h1         1 1BP       0.040700
      9 H31          4.3660     0.9000     0.9590 hc         1 1BP       0.045700
     10 H32          4.3660    -0.8680     0.9060 hc         1 1BP       0.045700
     11 H33          4.3660    -0.0300     2.4640 hc         1 1BP       0.045700
     12 HO21         1.5580     0.9100     2.9110 ho         1 1BP       0.408000
@<TRIPOS>BOND
     1     1     2 1   
     2     2     3 1   
     3     2     6 1   
     4     2     7 1   
     5     3     4 1   
     6     3     5 1   
     7     3     8 1   
     8     4     9 1   
     9     4    10 1   
    10     4    11 1   
    11     5    12 1   
@<TRIPOS>SUBSTRUCTURE
     1 1BP         1 TEMP              0 ****  ****    0 ROOT
