@<TRIPOS>MOLECULE
1BP
   12    11     1     0     0
SMALL
bcc


@<TRIPOS>ATOM
      1 Br           0.0260     0.3870    -0.0750 br         1 1BP      -0.162400
      2 C1           1.9070     0.0390     0.0930 c3         1 1BP      -0.053000
      3 C2           2.3950    -0.0260     1.5360 c3         1 1BP       0.145100
      4 C3           2.0130    -1.3310     2.2110 c3         1 1BP      -0.095100
      5 O2           3.8180     0.0290     1.5500 oh         1 1BP      -0.593800
      6 H11          2.1110    -0.9270    -0.4250 h1         1 1BP       0.078700
      7 H12          2.4310     0.8590    -0.4530 h1         1 1BP       0.078700
      8 H21          1.9840     0.8460     2.1200 h1         1 1BP       0.046700
      9 H31          0.9030    -1.4260     2.2480 hc         1 1BP       0.052033
     10 H32          2.4410    -2.1960     1.6510 hc         1 1BP       0.052033
     11 H33          2.4210    -1.3480     3.2500 hc         1 1BP       0.052033
     12 HO21         4.0700     0.9030     1.2300 ho         1 1BP       0.400000
@<TRIPOS>BOND
     1     1     2 1   
     2     2     3 1   
     3     2     6 1   
     4     2     7 1   
     5     3     4 1   
     6     3     5 1   
     7     3     8 1   
     8     4     9 1   
     9     4    10 1   
    10     4    11 1   
    11     5    12 1   
@<TRIPOS>SUBSTRUCTURE
     1 1BP         1 TEMP              0 ****  ****    0 ROOT
