@<TRIPOS>MOLECULE
1BQ
   59    63     1     0     0
SMALL
bcc


@<TRIPOS>ATOM
      1 C1           0.0070     0.1700     0.2570 c3         1 1BQ       0.180100
      2 N2           1.4210     0.4280     0.1610 nh         1 1BQ      -0.635900
      3 C3           2.1660     0.3610     1.3370 ca         1 1BQ       0.253600
      4 C4           1.5390     0.2900     2.6100 ca         1 1BQ      -0.186000
      5 C5           2.2820     0.2220     3.7750 ca         1 1BQ      -0.055000
      6 C6           3.6870     0.2270     3.7450 cp         1 1BQ      -0.080000
      7 C7           4.3250     0.2940     2.5090 ca         1 1BQ      -0.053000
      8 C8           3.5950     0.3510     1.3160 ca         1 1BQ      -0.134000
      9 C9           4.2520     0.4040     0.0340 cc         1 1BQ       0.118700
     10 N10          5.5960     0.2590    -0.2700 na         1 1BQ       0.005400
     11 N12          5.8270     0.3510    -1.5900 nc         1 1BQ      -0.509800
     12 C13          4.6360     0.5600    -2.1900 cd         1 1BQ       0.436200
     13 C14          3.5740     0.6070    -1.2010 cd         1 1BQ      -0.615800
     14 S15          1.9780     0.8420    -1.3790 sy         1 1BQ       1.571200
     15 O16          1.4200    -0.0470    -2.3100 o          1 1BQ      -0.649300
     16 O17          1.6730     2.1860    -1.6190 o          1 1BQ      -0.649300
     17 C18          4.4590     0.1630     4.9830 cp         1 1BQ      -0.021000
     18 C19          5.5980     0.9630     5.1520 ca         1 1BQ      -0.128500
     19 C20          6.3390     0.8960     6.3290 ca         1 1BQ      -0.092500
     20 C21          5.9420     0.0340     7.3560 ca         1 1BQ      -0.126600
     21 C22          4.8090    -0.7680     7.1950 ca         1 1BQ      -0.092500
     22 C23          4.0720    -0.7040     6.0150 ca         1 1BQ      -0.128500
     23 C24          6.7920    -0.0650     8.5800 c          1 1BQ       0.661700
     24 O25          8.0010    -0.3580     8.4770 o          1 1BQ      -0.594100
     25 N26          6.1970     0.0880     9.8320 n          1 1BQ      -0.449800
     26 C27          7.0320     0.0440    11.0190 c3         1 1BQ       0.078000
     27 C28          7.2510     1.4010    11.6880 c3         1 1BQ      -0.101900
     28 C29          5.9250     2.1040    11.9400 c3         1 1BQ      -0.060700
     29 C30          6.1610     3.4780    12.5450 c3         1 1BQ      -0.078400
     30 C31          4.9090     4.0770    13.1650 c3         1 1BQ       0.131400
     31 O32          4.1280     4.6440    12.1240 oh         1 1BQ      -0.604800
     32 C33          5.1390     2.2030    10.6420 c3         1 1BQ      -0.101900
     33 C34          4.9620     0.8250    10.0040 c3         1 1BQ       0.078000
     34 H1          -0.1910    -0.7880     0.8080 h1         1 1BQ       0.057700
     35 H2          -0.5190     1.0100     0.7870 h1         1 1BQ       0.057700
     36 H3          -0.4210     0.0710    -0.7800 h1         1 1BQ       0.057700
     37 H4           0.4410     0.3000     2.6880 ha         1 1BQ       0.148000
     38 H5           1.7630     0.1750     4.7470 ha         1 1BQ       0.144000
     39 H6           5.4270     0.2980     2.4770 ha         1 1BQ       0.134000
     40 H7           6.3450     0.0920     0.3620 hn         1 1BQ       0.332700
     41 H8           4.5330     0.6680    -3.2730 h4         1 1BQ       0.063100
     42 H9           5.9070     1.6530     4.3520 ha         1 1BQ       0.138500
     43 H10          7.2450     1.5100     6.4520 ha         1 1BQ       0.149000
     44 H11          4.5030    -1.4580     7.9980 ha         1 1BQ       0.149000
     45 H12          3.1870    -1.3460     5.8870 ha         1 1BQ       0.138500
     46 H13          8.0320    -0.4040    10.7570 h1         1 1BQ       0.059200
     47 H14          6.5170    -0.6430    11.7520 h1         1 1BQ       0.059200
     48 H15          7.9040     2.0450    11.0450 hc         1 1BQ       0.056700
     49 H16          7.7860     1.2320    12.6580 hc         1 1BQ       0.056700
     50 H17          5.3300     1.4840    12.6690 hc         1 1BQ       0.045700
     51 H18          6.9380     3.3960    13.3500 hc         1 1BQ       0.055200
     52 H19          6.5500     4.1750    11.7580 hc         1 1BQ       0.055200
     53 H20          5.1950     4.8790    13.8990 h1         1 1BQ       0.022200
     54 H21          4.3100     3.2930    13.7030 h1         1 1BQ       0.022200
     55 H22          3.3730     5.0700    12.5460 ho         1 1BQ       0.399000
     56 H23          4.1290     2.6450    10.8470 hc         1 1BQ       0.056700
     57 H24          5.6680     2.8910     9.9330 hc         1 1BQ       0.056700
     58 H25          4.4410     0.9460     9.0140 h1         1 1BQ       0.059200
     59 H26          4.2980     0.2010    10.6710 h1         1 1BQ       0.059200
@<TRIPOS>BOND
     1     1     2 1   
     2     1    34 1   
     3     1    35 1   
     4     1    36 1   
     5     2     3 1   
     6     2    14 1   
     7     3     4 ar  
     8     3     8 ar  
     9     4     5 ar  
    10     4    37 1   
    11     5     6 ar  
    12     5    38 1   
    13     6     7 ar  
    14     6    17 1   
    15     7     8 ar  
    16     7    39 1   
    17     8     9 1   
    18     9    10 1   
    19     9    13 2   
    20    10    11 1   
    21    10    40 1   
    22    11    12 2   
    23    12    13 1   
    24    12    41 1   
    25    13    14 1   
    26    14    15 2   
    27    14    16 2   
    28    17    18 ar  
    29    17    22 ar  
    30    18    19 ar  
    31    18    42 1   
    32    19    20 ar  
    33    19    43 1   
    34    20    21 ar  
    35    20    23 1   
    36    21    22 ar  
    37    21    44 1   
    38    22    45 1   
    39    23    24 2   
    40    23    25 1   
    41    25    26 1   
    42    25    33 1   
    43    26    27 1   
    44    26    46 1   
    45    26    47 1   
    46    27    28 1   
    47    27    48 1   
    48    27    49 1   
    49    28    29 1   
    50    28    32 1   
    51    28    50 1   
    52    29    30 1   
    53    29    51 1   
    54    29    52 1   
    55    30    31 1   
    56    30    53 1   
    57    30    54 1   
    58    31    55 1   
    59    32    33 1   
    60    32    56 1   
    61    32    57 1   
    62    33    58 1   
    63    33    59 1   
@<TRIPOS>SUBSTRUCTURE
     1 1BQ         1 TEMP              0 ****  ****    0 ROOT
