@<TRIPOS>MOLECULE
1BQ
   59    63     1     0     0
SMALL
bcc


@<TRIPOS>ATOM
      1 C1           0.0000     0.0000     0.0000 c3         1 1BQ       0.253100
      2 N2           1.4650     0.0000     0.0000 nh         1 1BQ      -0.337900
      3 C3           2.1700     0.0000     1.2060 ca         1 1BQ       0.141600
      4 C4           1.5770     0.6230     2.3030 ca         1 1BQ      -0.148000
      5 C5           2.2100     0.6440     3.5250 ca         1 1BQ      -0.046000
      6 C6           3.4590     0.0400     3.6820 cp         1 1BQ      -0.063000
      7 C7           4.0660    -0.5790     2.5940 ca         1 1BQ      -0.059000
      8 C8           3.4320    -0.5960     1.3540 ca         1 1BQ      -0.085000
      9 C9           4.1170    -1.2250     0.2060 cc         1 1BQ      -0.106300
     10 N10          5.1880    -2.0470     0.1560 na         1 1BQ       0.501400
     11 N12          5.4310    -2.3520    -1.1940 nc         1 1BQ      -0.686800
     12 C13          4.5340    -1.7350    -1.9330 cd         1 1BQ       0.526200
     13 C14          3.7040    -1.0290    -1.0960 cd         1 1BQ      -0.365800
     14 S15          2.3070    -0.0080    -1.4400 sy         1 1BQ       1.071200
     15 O16          1.5070    -0.7050    -2.3860 o          1 1BQ      -0.570800
     16 O17          2.7960     1.3110    -1.6380 o          1 1BQ      -0.570800
     17 C18          4.1340     0.0580     5.0000 cp         1 1BQ      -0.010000
     18 C19          3.5210     0.6800     6.0890 ca         1 1BQ      -0.110500
     19 C20          4.1470     0.6980     7.3140 ca         1 1BQ      -0.060500
     20 C21          5.3980     0.0910     7.4680 ca         1 1BQ      -0.144600
     21 C22          6.0090    -0.5320     6.3780 ca         1 1BQ      -0.060500
     22 C23          5.3790    -0.5520     5.1540 ca         1 1BQ      -0.110500
     23 C24          6.0700     0.1090     8.7820 c          1 1BQ       0.609700
     24 O25          6.1990     1.1580     9.3840 o          1 1BQ      -0.642100
     25 N26          6.5430    -1.0350     9.3130 n          1 1BQ      -0.144800
     26 C27          7.1410    -1.0470    10.6560 c3         1 1BQ       0.035000
     27 C28          6.4340    -2.1130    11.5000 c3         1 1BQ      -0.043900
     28 C29          6.4960    -3.4570    10.7730 c3         1 1BQ      -0.050700
     29 C30          5.8220    -4.5310    11.6290 c3         1 1BQ      -0.034400
     30 C31          5.9920    -5.8970    10.9620 c3         1 1BQ       0.218400
     31 O32          5.3630    -6.9000    11.7620 oh         1 1BQ      -0.591800
     32 C33          5.7700    -3.3470     9.4300 c3         1 1BQ      -0.043900
     33 C34          6.4630    -2.2970     8.5650 c3         1 1BQ       0.035000
     34 H1          -0.3610     1.0030     0.1930 h1         1 1BQ       0.014367
     35 H2          -0.3610    -0.3340    -0.9650 h1         1 1BQ       0.014367
     36 H3          -0.3610    -0.6690     0.7720 h1         1 1BQ       0.014367
     37 H4           0.6080     1.0950     2.1930 ha         1 1BQ       0.122000
     38 H5           1.7340     1.1270     4.3700 ha         1 1BQ       0.114000
     39 H6           5.0350    -1.0490     2.7120 ha         1 1BQ       0.106000
     40 H7           5.7140    -2.3790     0.9400 hn         1 1BQ       0.145700
     41 H8           4.4630    -1.7760    -3.0140 h4         1 1BQ       0.012100
     42 H9           2.5520     1.1500     5.9690 ha         1 1BQ       0.111500
     43 H10          3.6720     1.1810     8.1580 ha         1 1BQ       0.116000
     44 H11          6.9770    -1.0040     6.4960 ha         1 1BQ       0.116000
     45 H12          5.8540    -1.0350     4.3080 ha         1 1BQ       0.111500
     46 H13          7.0130    -0.0760    11.1180 h1         1 1BQ       0.035200
     47 H14          8.1950    -1.2850    10.5810 h1         1 1BQ       0.035200
     48 H15          5.3990    -1.8290    11.6470 hc         1 1BQ       0.026950
     49 H16          6.9300    -2.1990    12.4600 hc         1 1BQ       0.026950
     50 H17          7.5310    -3.7250    10.6000 hc         1 1BQ       0.030700
     51 H18          4.7670    -4.3060    11.7270 hc         1 1BQ       0.028200
     52 H19          6.2800    -4.5500    12.6110 hc         1 1BQ       0.028200
     53 H20          7.0470    -6.1230    10.8640 h1         1 1BQ      -0.014300
     54 H21          5.5340    -5.8790     9.9800 h1         1 1BQ      -0.014300
     55 H22          5.5570    -7.7520    11.4070 ho         1 1BQ       0.390000
     56 H23          5.7990    -4.3060     8.9260 hc         1 1BQ       0.026950
     57 H24          4.7410    -3.0530     9.6000 hc         1 1BQ       0.026950
     58 H25          5.8920    -2.1430     7.6570 h1         1 1BQ       0.035200
     59 H26          7.4620    -2.6350     8.3180 h1         1 1BQ       0.035200
@<TRIPOS>BOND
     1     1     2 1   
     2     1    34 1   
     3     1    35 1   
     4     1    36 1   
     5     2     3 1   
     6     2    14 1   
     7     3     4 ar  
     8     3     8 ar  
     9     4     5 ar  
    10     4    37 1   
    11     5     6 ar  
    12     5    38 1   
    13     6     7 ar  
    14     6    17 1   
    15     7     8 ar  
    16     7    39 1   
    17     8     9 1   
    18     9    10 1   
    19     9    13 2   
    20    10    11 1   
    21    10    40 1   
    22    11    12 2   
    23    12    13 1   
    24    12    41 1   
    25    13    14 1   
    26    14    15 2   
    27    14    16 2   
    28    17    18 ar  
    29    17    22 ar  
    30    18    19 ar  
    31    18    42 1   
    32    19    20 ar  
    33    19    43 1   
    34    20    21 ar  
    35    20    23 1   
    36    21    22 ar  
    37    21    44 1   
    38    22    45 1   
    39    23    24 2   
    40    23    25 1   
    41    25    26 1   
    42    25    33 1   
    43    26    27 1   
    44    26    46 1   
    45    26    47 1   
    46    27    28 1   
    47    27    48 1   
    48    27    49 1   
    49    28    29 1   
    50    28    32 1   
    51    28    50 1   
    52    29    30 1   
    53    29    51 1   
    54    29    52 1   
    55    30    31 1   
    56    30    53 1   
    57    30    54 1   
    58    31    55 1   
    59    32    33 1   
    60    32    56 1   
    61    32    57 1   
    62    33    58 1   
    63    33    59 1   
@<TRIPOS>SUBSTRUCTURE
     1 1BQ         1 TEMP              0 ****  ****    0 ROOT
