@<TRIPOS>MOLECULE
1BR
   55    58     1     0     0
SMALL
bcc


@<TRIPOS>ATOM
      1 C1           0.0000     0.0000     0.0000 c3         1 1BR       0.254100
      2 N2           1.4650     0.0000     0.0000 nh         1 1BR      -0.337900
      3 C3           2.1730     0.0000     1.2100 ca         1 1BR       0.076600
      4 C4           1.5810     0.6160     2.3090 ca         1 1BR      -0.095000
      5 C5           2.2210     0.6380     3.5310 ca         1 1BR      -0.146000
      6 C6           3.4660     0.0410     3.6810 ca         1 1BR       0.049600
      7 N7           4.1070     0.0590     4.9250 nu         1 1BR      -0.432600
      8 C8           3.4650     0.7070     6.0710 c3         1 1BR       0.231100
      9 C9           4.3560     0.5880     7.2800 ca         1 1BR      -0.131300
     10 C10          5.2940     1.5670     7.5470 ca         1 1BR      -0.080000
     11 C11          6.1120     1.4570     8.6560 ca         1 1BR      -0.108500
     12 C12          5.9910     0.3690     9.4980 ca         1 1BR      -0.064300
     13 C13          5.0520    -0.6110     9.2330 ca         1 1BR      -0.108500
     14 C14          4.2310    -0.4980     8.1270 ca         1 1BR      -0.080000
     15 C15          6.8830     0.2480    10.7070 c3         1 1BR      -0.016700
     16 C16          6.5460    -1.0380    11.4640 c3         1 1BR       0.005567
     17 C17          8.3450     0.2080    10.2600 c3         1 1BR       0.005567
     18 C18          6.6630     1.4530    11.6260 c3         1 1BR       0.005567
     19 C19          4.0720    -0.5720     2.5970 ca         1 1BR      -0.176000
     20 C20          3.4360    -0.5910     1.3550 ca         1 1BR      -0.028000
     21 C21          4.1200    -1.2220     0.2070 cc         1 1BR      -0.090300
     22 C22          3.7050    -1.0250    -1.0950 cd         1 1BR      -0.366800
     23 C23          4.5350    -1.7330    -1.9330 cd         1 1BR       0.521200
     24 N24          5.4320    -2.3490    -1.1930 nc         1 1BR      -0.681800
     25 N25          5.1900    -2.0430     0.1570 na         1 1BR       0.541400
     26 C26          5.9610    -2.5300     1.3040 c3         1 1BR       0.003600
     27 S27          2.3090    -0.0060    -1.4400 sy         1 1BR       1.072200
     28 O28          1.5080    -0.7010    -2.3860 o          1 1BR      -0.577300
     29 O29          2.8000     1.3120    -1.6390 o          1 1BR      -0.577300
     30 H1          -0.3610    -0.6730     0.7680 h1         1 1BR       0.011367
     31 H2          -0.3610     1.0020     0.1980 h1         1 1BR       0.011367
     32 H3          -0.3610    -0.3290    -0.9670 h1         1 1BR       0.011367
     33 H4           0.6110     1.0850     2.2030 ha         1 1BR       0.116000
     34 H5           1.7500     1.1230     4.3770 ha         1 1BR       0.116000
     35 H6           5.0080    -0.3660     5.0300 hn         1 1BR       0.295800
     36 H7           2.5160     0.2260     6.2730 h1         1 1BR       0.016200
     37 H8           3.2990     1.7540     5.8470 h1         1 1BR       0.016200
     38 H9           5.3890     2.4200     6.8860 ha         1 1BR       0.107500
     39 H10          6.8480     2.2250     8.8650 ha         1 1BR       0.117500
     40 H11          4.9550    -1.4630     9.8950 ha         1 1BR       0.117500
     41 H12          3.4950    -1.2650     7.9180 ha         1 1BR       0.107500
     42 H13          5.5100    -1.0100    11.7810 hc         1 1BR       0.008033
     43 H14          6.7010    -1.8910    10.8140 hc         1 1BR       0.008033
     44 H15          7.1870    -1.1240    12.3330 hc         1 1BR       0.008033
     45 H16          8.4690    -0.5510     9.4980 hc         1 1BR       0.008033
     46 H17          8.9760    -0.0260    11.1090 hc         1 1BR       0.008033
     47 H18          8.6260     1.1740     9.8570 hc         1 1BR       0.008033
     48 H19          7.1880     1.2950    12.5600 hc         1 1BR       0.008033
     49 H20          5.6040     1.5680    11.8230 hc         1 1BR       0.008033
     50 H21          7.0400     2.3470    11.1460 hc         1 1BR       0.008033
     51 H22          5.0430    -1.0380     2.7140 ha         1 1BR       0.118000
     52 H23          4.4630    -1.7750    -3.0130 h4         1 1BR       0.011100
     53 H24          5.2870    -2.9610     2.0350 h1         1 1BR       0.030033
     54 H25          6.5010    -1.7050     1.7530 h1         1 1BR       0.030033
     55 H26          6.6650    -3.2840     0.9730 h1         1 1BR       0.030033
@<TRIPOS>BOND
     1     1     2 1   
     2     1    30 1   
     3     1    31 1   
     4     1    32 1   
     5     2     3 1   
     6     2    27 1   
     7     3     4 ar  
     8     3    20 ar  
     9     4     5 ar  
    10     4    33 1   
    11     5     6 ar  
    12     5    34 1   
    13     6     7 1   
    14     6    19 ar  
    15     7     8 1   
    16     7    35 1   
    17     8     9 1   
    18     8    36 1   
    19     8    37 1   
    20     9    10 ar  
    21     9    14 ar  
    22    10    11 ar  
    23    10    38 1   
    24    11    12 ar  
    25    11    39 1   
    26    12    13 ar  
    27    12    15 1   
    28    13    14 ar  
    29    13    40 1   
    30    14    41 1   
    31    15    16 1   
    32    15    17 1   
    33    15    18 1   
    34    16    42 1   
    35    16    43 1   
    36    16    44 1   
    37    17    45 1   
    38    17    46 1   
    39    17    47 1   
    40    18    48 1   
    41    18    49 1   
    42    18    50 1   
    43    19    20 ar  
    44    19    51 1   
    45    20    21 1   
    46    21    22 2   
    47    21    25 1   
    48    22    23 1   
    49    22    27 1   
    50    23    24 2   
    51    23    52 1   
    52    24    25 1   
    53    25    26 1   
    54    26    53 1   
    55    26    54 1   
    56    26    55 1   
    57    27    28 2   
    58    27    29 2   
@<TRIPOS>SUBSTRUCTURE
     1 1BR         1 TEMP              0 ****  ****    0 ROOT
