@<TRIPOS>MOLECULE
1BR
   55    58     1     0     0
SMALL
bcc


@<TRIPOS>ATOM
      1 C1           0.1940    -0.2850    -0.4280 c3         1 1BR       0.188100
      2 N2           1.5670     0.1000    -0.2550 nh         1 1BR      -0.649900
      3 C3           2.1010     0.0280     1.0390 ca         1 1BR       0.193600
      4 C4           1.5320    -0.8240     2.0170 ca         1 1BR      -0.139000
      5 C5           2.0660    -0.9310     3.2860 ca         1 1BR      -0.132000
      6 C6           3.2270    -0.2060     3.6540 ca         1 1BR       0.112600
      7 N7           3.8290    -0.4280     4.9040 nu         1 1BR      -0.720600
      8 C8           4.6170     0.6430     5.4790 c3         1 1BR       0.232100
      9 C9           4.6460     0.6170     6.9780 ca         1 1BR      -0.115300
     10 C10          3.4960     0.9350     7.7090 ca         1 1BR      -0.116500
     11 C11          3.5290     0.9360     9.1000 ca         1 1BR      -0.128000
     12 C12          4.7070     0.6180     9.7940 ca         1 1BR      -0.053300
     13 C13          5.8500     0.2980     9.0540 ca         1 1BR      -0.128000
     14 C14          5.8200     0.2940     7.6590 ca         1 1BR      -0.116500
     15 C15          4.6980     0.6320    11.3000 c3         1 1BR      -0.012700
     16 C16          3.6670    -0.3720    11.8090 c3         1 1BR      -0.086100
     17 C17          6.0530     0.2650    11.8930 c3         1 1BR      -0.086100
     18 C18          4.3260     2.0290    11.7910 c3         1 1BR      -0.086100
     19 C19          3.7950     0.6520     2.6960 ca         1 1BR      -0.137000
     20 C20          3.2350     0.8040     1.4240 ca         1 1BR      -0.081000
     21 C21          3.7900     1.7110     0.4400 cc         1 1BR       0.113700
     22 C22          3.4650     1.6200    -0.9460 cd         1 1BR      -0.609800
     23 C23          4.2060     2.7050    -1.5530 cd         1 1BR       0.435200
     24 N24          4.8980     3.3830    -0.6170 nc         1 1BR      -0.514800
     25 N25          4.6500     2.7960     0.5800 na         1 1BR       0.115400
     26 C26          5.1890     3.3200     1.8130 c3         1 1BR       0.028600
     27 S27          2.4460     0.5390    -1.6120 sy         1 1BR       1.571200
     28 O28          3.1260    -0.5770    -2.1130 o          1 1BR      -0.653800
     29 O29          1.5840     1.1510    -2.5400 o          1 1BR      -0.653800
     30 H1          -0.1810     0.1140    -1.4110 h1         1 1BR       0.054367
     31 H2           0.0880    -1.4050    -0.4250 h1         1 1BR       0.054367
     32 H3          -0.4490     0.1360     0.3910 h1         1 1BR       0.054367
     33 H4           0.6470    -1.4320     1.7670 ha         1 1BR       0.146000
     34 H5           1.5880    -1.6110     4.0100 ha         1 1BR       0.140000
     35 H6           3.2170    -0.8680     5.5610 hn         1 1BR       0.401800
     36 H7           4.2350     1.6570     5.1520 h1         1 1BR       0.045200
     37 H8           5.6660     0.5340     5.0760 h1         1 1BR       0.045200
     38 H9           2.5650     1.1930     7.1830 ha         1 1BR       0.133500
     39 H10          2.6160     1.1910     9.6600 ha         1 1BR       0.137000
     40 H11          6.7940     0.0400     9.5590 ha         1 1BR       0.137000
     41 H12          6.7290     0.0320     7.0960 ha         1 1BR       0.133500
     42 H13          2.6460    -0.1090    11.4450 hc         1 1BR       0.038144
     43 H14          3.9200    -1.4000    11.4540 hc         1 1BR       0.038144
     44 H15          3.6560    -0.3720    12.9260 hc         1 1BR       0.038144
     45 H16          5.9930     0.2900    13.0080 hc         1 1BR       0.038144
     46 H17          6.8350     0.9900    11.5670 hc         1 1BR       0.038144
     47 H18          6.3540    -0.7640    11.5810 hc         1 1BR       0.038144
     48 H19          4.3200     2.0500    12.9070 hc         1 1BR       0.038144
     49 H20          5.0660     2.7780    11.4230 hc         1 1BR       0.038144
     50 H21          3.3120     2.3180    11.4250 hc         1 1BR       0.038144
     51 H22          4.7250     1.1880     2.9410 ha         1 1BR       0.138000
     52 H23          4.2270     2.9780    -2.6120 h4         1 1BR       0.062100
     53 H24          4.3920     3.2940     2.6030 h1         1 1BR       0.067367
     54 H25          5.5310     4.3800     1.6690 h1         1 1BR       0.067367
     55 H26          6.0680     2.6970     2.1320 h1         1 1BR       0.067367
@<TRIPOS>BOND
     1     1     2 1   
     2     1    30 1   
     3     1    31 1   
     4     1    32 1   
     5     2     3 1   
     6     2    27 1   
     7     3     4 ar  
     8     3    20 ar  
     9     4     5 ar  
    10     4    33 1   
    11     5     6 ar  
    12     5    34 1   
    13     6     7 1   
    14     6    19 ar  
    15     7     8 1   
    16     7    35 1   
    17     8     9 1   
    18     8    36 1   
    19     8    37 1   
    20     9    10 ar  
    21     9    14 ar  
    22    10    11 ar  
    23    10    38 1   
    24    11    12 ar  
    25    11    39 1   
    26    12    13 ar  
    27    12    15 1   
    28    13    14 ar  
    29    13    40 1   
    30    14    41 1   
    31    15    16 1   
    32    15    17 1   
    33    15    18 1   
    34    16    42 1   
    35    16    43 1   
    36    16    44 1   
    37    17    45 1   
    38    17    46 1   
    39    17    47 1   
    40    18    48 1   
    41    18    49 1   
    42    18    50 1   
    43    19    20 ar  
    44    19    51 1   
    45    20    21 1   
    46    21    22 2   
    47    21    25 1   
    48    22    23 1   
    49    22    27 1   
    50    23    24 2   
    51    23    52 1   
    52    24    25 1   
    53    25    26 1   
    54    26    53 1   
    55    26    54 1   
    56    26    55 1   
    57    27    28 2   
    58    27    29 2   
@<TRIPOS>SUBSTRUCTURE
     1 1BR         1 TEMP              0 ****  ****    0 ROOT
