@<TRIPOS>MOLECULE
1BS
   58    62     1     0     0
SMALL
bcc


@<TRIPOS>ATOM
      1 Cl1          0.1020    -0.9180     2.1400 cl         1 1BS      -0.026400
      2 C1           1.7030    -0.7420     1.6330 ca         1 1BS       0.060400
      3 C2           2.5340     0.1910     2.2610 ca         1 1BS      -0.119000
      4 C3           3.8590     0.3390     1.8430 ca         1 1BS      -0.013300
      5 C4           4.3470    -0.4500     0.7820 ca         1 1BS      -0.221900
      6 C5           3.5120    -1.3890     0.1670 ca         1 1BS      -0.100000
      7 C6           2.1940    -1.5360     0.5870 ca         1 1BS      -0.117000
      8 C9           4.7340     1.3510     2.4930 c3         1 1BS      -0.077100
      9 C10          6.2430     1.0220     2.4020 c3         1 1BS       0.148200
     10 N11          6.6310     0.4400     1.1130 n2         1 1BS      -0.555900
     11 C12          5.7610    -0.2160     0.4200 ce         1 1BS       0.568800
     12 N13          6.1680    -0.7870    -0.8990 ny         1 1BS      -0.723000
     13 C14          7.5540    -0.4480    -1.3770 c3         1 1BS       0.103200
     14 C15          7.9080    -1.2770    -2.6250 c3         1 1BS      -0.058100
     15 C27          7.0180     2.3350     2.6160 c3         1 1BS      -0.092600
     16 C28          6.6140     0.0640     3.5490 c3         1 1BS      -0.092600
     17 C7           7.6800     1.0470    -1.7390 cc         1 1BS       0.657200
     18 N8           8.9340     1.6190    -1.5420 na         1 1BS      -0.710600
     19 C19          6.7120     3.0280    -2.6100 c          1 1BS       0.721100
     20 N24          6.6290     1.6510    -2.2390 nd         1 1BS      -0.722100
     21 O25          5.7070     3.5990    -3.0490 o          1 1BS      -0.494100
     22 C26          7.7580    -2.7340    -2.3680 ca         1 1BS      -0.159300
     23 C29          8.7820    -3.4510    -1.7380 ca         1 1BS      -0.132500
     24 C30          8.6490    -4.8220    -1.5270 ca         1 1BS      -0.114500
     25 C31          7.4960    -5.4870    -1.9460 ca         1 1BS      -0.098000
     26 C32          6.4750    -4.7770    -2.5800 ca         1 1BS      -0.114500
     27 C33          6.6030    -3.4060    -2.7900 ca         1 1BS      -0.132500
     28 C8           8.0200     3.6880    -2.4350 ca         1 1BS      -0.336900
     29 C16          9.1140     2.9620    -1.8910 ca         1 1BS       0.201600
     30 C17         10.3500     3.6250    -1.7300 ca         1 1BS      -0.298300
     31 C18         10.4280     4.9690    -2.1220 ca         1 1BS       0.465200
     32 N20          9.3980     5.6720    -2.6430 nb         1 1BS      -0.664000
     33 C21          8.2250     5.0390    -2.7940 ca         1 1BS       0.495200
     34 H1           2.1480     0.8130     3.0870 ha         1 1BS       0.172000
     35 H2           3.8650    -2.0380    -0.6490 ha         1 1BS       0.124000
     36 H3           1.5380    -2.2740     0.0970 ha         1 1BS       0.171000
     37 H4           4.5410     2.3470     2.0030 hc         1 1BS       0.089700
     38 H5           4.4620     1.4570     3.5770 hc         1 1BS       0.089700
     39 H6           6.1050    -1.8150    -0.8340 hn         1 1BS       0.478800
     40 H7           8.2680    -0.7170    -0.5390 hx         1 1BS       0.124700
     41 H8           7.2700    -0.9590    -3.4940 hc         1 1BS       0.098200
     42 H9           8.9740    -1.0360    -2.8900 hc         1 1BS       0.098200
     43 H10          6.6920     2.7810     3.5870 hc         1 1BS       0.059033
     44 H11          6.8100     3.0660     1.7990 hc         1 1BS       0.059033
     45 H12          8.1160     2.1410     2.6600 hc         1 1BS       0.059033
     46 H13          6.4050     0.5740     4.5210 hc         1 1BS       0.059033
     47 H14          7.6990    -0.1970     3.5150 hc         1 1BS       0.059033
     48 H15          6.0080    -0.8710     3.4970 hc         1 1BS       0.059033
     49 H16          9.6710     1.1210    -1.1000 hn         1 1BS       0.465800
     50 H17          9.7030    -2.9360    -1.4250 ha         1 1BS       0.136000
     51 H18          9.4630    -5.3830    -1.0390 ha         1 1BS       0.155000
     52 H19          7.3970    -6.5730    -1.7870 ha         1 1BS       0.158000
     53 H20          5.5720    -5.3040    -2.9280 ha         1 1BS       0.155000
     54 H21          5.8130    -2.8600    -3.3300 ha         1 1BS       0.136000
     55 H22         11.2300     3.1160    -1.3150 ha         1 1BS       0.158000
     56 H23         11.3780     5.5280    -2.0150 h4         1 1BS       0.046100
     57 H24          7.3870     5.6250    -3.2240 h4         1 1BS       0.063100
     58 H132         5.4770    -0.4550    -1.5910 hn         1 1BS       0.478800
@<TRIPOS>BOND
     1     1     2 1   
     2     2     3 ar  
     3     2     7 ar  
     4     3     4 ar  
     5     3    34 1   
     6     4     5 ar  
     7     4     8 1   
     8     5     6 ar  
     9     5    11 1   
    10     6     7 ar  
    11     6    35 1   
    12     7    36 1   
    13     8     9 1   
    14     8    37 1   
    15     8    38 1   
    16     9    10 1   
    17     9    15 1   
    18     9    16 1   
    19    10    11 2   
    20    11    12 1   
    21    12    13 1   
    22    12    39 1   
    23    12    58 1   
    24    13    14 1   
    25    13    17 1   
    26    13    40 1   
    27    14    22 1   
    28    14    41 1   
    29    14    42 1   
    30    15    43 1   
    31    15    44 1   
    32    15    45 1   
    33    16    46 1   
    34    16    47 1   
    35    16    48 1   
    36    17    18 1   
    37    17    20 2   
    38    18    29 1   
    39    18    49 1   
    40    19    20 1   
    41    19    21 2   
    42    19    28 1   
    43    22    23 ar  
    44    22    27 ar  
    45    23    24 ar  
    46    23    50 1   
    47    24    25 ar  
    48    24    51 1   
    49    25    26 ar  
    50    25    52 1   
    51    26    27 ar  
    52    26    53 1   
    53    27    54 1   
    54    28    29 ar  
    55    28    33 ar  
    56    29    30 ar  
    57    30    31 ar  
    58    30    55 1   
    59    31    32 ar  
    60    31    56 1   
    61    32    33 ar  
    62    33    57 1   
@<TRIPOS>SUBSTRUCTURE
     1 1BS         1 TEMP              0 ****  ****    0 ROOT
