@<TRIPOS>MOLECULE
1BS
   57    61     1     0     0
SMALL
bcc


@<TRIPOS>ATOM
      1 Cl1          0.0000     0.0000     0.0000 cl         1 1BS      -0.021400
      2 C1           1.7360     0.0000     0.0000 ca         1 1BS      -0.017600
      3 C2           2.4250     0.0000     1.2030 ca         1 1BS      -0.101000
      4 C3           3.8010    -0.0010     1.2040 ca         1 1BS      -0.038300
      5 C4           4.5010    -0.0010    -0.0050 ca         1 1BS      -0.169900
      6 C5           3.8060    -0.0010    -1.2100 ca         1 1BS      -0.066000
      7 C6           2.4240    -0.0060    -1.2010 ca         1 1BS      -0.107000
      8 C9           4.5810    -0.0010     2.4920 c3         1 1BS       0.003900
      9 C10          5.8720    -0.7980     2.3080 c3         1 1BS       0.146200
     10 N11          6.5960    -0.3630     1.1180 n2         1 1BS      -0.679900
     11 C12          5.9800    -0.0010     0.0300 ce         1 1BS       0.547800
     12 N13          6.7010     0.3790    -1.0810 nu         1 1BS      -0.429200
     13 C14          8.1630     0.2810    -1.0740 c3         1 1BS       0.104200
     14 C15          8.6680     0.1010    -2.5070 c3         1 1BS       0.024900
     15 C27          6.7620    -0.6000     3.5360 c3         1 1BS       0.001400
     16 C28          5.5300    -2.2830     2.1720 c3         1 1BS       0.001400
     17 C7           8.7480     1.5400    -0.4890 cc         1 1BS       0.458200
     18 N8           9.8720     1.4400     0.2450 na         1 1BS      -0.177600
     19 C19          8.6030     3.8390    -0.2380 c          1 1BS       0.736100
     20 N24          8.1420     2.6710    -0.7250 nd         1 1BS      -0.632100
     21 O25          8.0260     4.8870    -0.4680 o          1 1BS      -0.575100
     22 C26          8.1910    -1.2230    -3.0450 ca         1 1BS      -0.099300
     23 C29          7.0410    -1.2840    -3.8100 ca         1 1BS      -0.096000
     24 C30          6.6030    -2.4990    -4.3040 ca         1 1BS      -0.093500
     25 C31          7.3150    -3.6520    -4.0340 ca         1 1BS      -0.096000
     26 C32          8.4670    -3.5910    -3.2690 ca         1 1BS      -0.093500
     27 C33          8.9060    -2.3760    -2.7800 ca         1 1BS      -0.096000
     28 C8           9.8330     3.8120     0.5720 ca         1 1BS      -0.349900
     29 C16         10.4450     2.5620     0.7940 ca         1 1BS       0.025600
     30 C17         11.6080     2.5230     1.5580 ca         1 1BS      -0.282300
     31 C18         12.1070     3.7070     2.0600 ca         1 1BS       0.465200
     32 N20         11.5060     4.8630     1.8320 nb         1 1BS      -0.619000
     33 C21         10.4040     4.9560     1.1150 ca         1 1BS       0.511200
     34 H1           1.8830     0.0880     2.1370 ha         1 1BS       0.121000
     35 H2           4.3450    -0.0060    -2.1500 ha         1 1BS       0.108000
     36 H3           1.8780    -0.0160    -2.1370 ha         1 1BS       0.117000
     37 H4           3.9850    -0.4580     3.2730 hc         1 1BS       0.034700
     38 H5           4.8230     1.0180     2.7660 hc         1 1BS       0.034700
     39 H6           6.2290     0.7670    -1.8730 hn         1 1BS       0.307800
     40 H7           8.4650    -0.5700    -0.4760 h1         1 1BS       0.063700
     41 H8           9.7510     0.1240    -2.5140 hc         1 1BS       0.031700
     42 H9           8.2860     0.9020    -3.1290 hc         1 1BS       0.031700
     43 H10          7.0000     0.4520     3.6450 hc         1 1BS       0.007533
     44 H11          7.6780    -1.1660     3.4140 hc         1 1BS       0.007533
     45 H12          6.2400    -0.9450     4.4210 hc         1 1BS       0.007533
     46 H13          4.9400    -2.5970     3.0240 hc         1 1BS       0.007533
     47 H14          6.4450    -2.8620     2.1320 hc         1 1BS       0.007533
     48 H15          4.9630    -2.4410     1.2620 hc         1 1BS       0.007533
     49 H16         10.2940     0.5440     0.3900 hn         1 1BS       0.290800
     50 H17          6.4820    -0.3800    -4.0220 ha         1 1BS       0.103500
     51 H18          5.7020    -2.5470    -4.9020 ha         1 1BS       0.104500
     52 H19          6.9710    -4.6040    -4.4190 ha         1 1BS       0.105000
     53 H20          9.0260    -4.4940    -3.0590 ha         1 1BS       0.104500
     54 H21          9.8080    -2.3270    -2.1810 ha         1 1BS       0.103500
     55 H22         12.1110     1.5840     1.7530 ha         1 1BS       0.121000
     56 H23         13.0110     3.6890     2.6560 h4         1 1BS      -0.020900
     57 H24          9.9430     5.9230     0.9520 h4         1 1BS       0.004100
@<TRIPOS>BOND
     1     1     2 1   
     2     2     3 ar  
     3     2     7 ar  
     4     3     4 ar  
     5     3    34 1   
     6     4     5 ar  
     7     4     8 1   
     8     5     6 ar  
     9     5    11 1   
    10     6     7 ar  
    11     6    35 1   
    12     7    36 1   
    13     8     9 1   
    14     8    37 1   
    15     8    38 1   
    16     9    10 1   
    17     9    15 1   
    18     9    16 1   
    19    10    11 2   
    20    11    12 1   
    21    12    13 1   
    22    12    39 1   
    23    13    14 1   
    24    13    17 1   
    25    13    40 1   
    26    14    22 1   
    27    14    41 1   
    28    14    42 1   
    29    15    43 1   
    30    15    44 1   
    31    15    45 1   
    32    16    46 1   
    33    16    47 1   
    34    16    48 1   
    35    17    18 1   
    36    17    20 2   
    37    18    29 1   
    38    18    49 1   
    39    19    20 1   
    40    19    21 2   
    41    19    28 1   
    42    22    23 ar  
    43    22    27 ar  
    44    23    24 ar  
    45    23    50 1   
    46    24    25 ar  
    47    24    51 1   
    48    25    26 ar  
    49    25    52 1   
    50    26    27 ar  
    51    26    53 1   
    52    27    54 1   
    53    28    29 ar  
    54    28    33 ar  
    55    29    30 ar  
    56    30    31 ar  
    57    30    55 1   
    58    31    32 ar  
    59    31    56 1   
    60    32    33 ar  
    61    33    57 1   
@<TRIPOS>SUBSTRUCTURE
     1 1BS         1 TEMP              0 ****  ****    0 ROOT
