@<TRIPOS>MOLECULE
1BT
   50    54     1     0     0
SMALL
bcc


@<TRIPOS>ATOM
      1 N01         -1.4970     0.4250    -2.0000 n1         1 1BT      -0.372800
      2 C02         -0.8970     0.4100    -1.0020 cg         1 1BT       0.187500
      3 C03         -0.1860     0.4010     0.2240 ce         1 1BT      -0.077700
      4 C04          1.0830    -0.0330     0.3180 cf         1 1BT      -0.037200
      5 C05          1.8570    -0.0590     1.5480 ca         1 1BT      -0.071800
      6 C06          1.5080     0.7100     2.6640 ca         1 1BT      -0.107000
      7 C07          2.2790     0.6800     3.8260 ca         1 1BT      -0.062800
      8 C08          1.8790     1.5100     4.9880 c3         1 1BT      -0.056800
      9 C09          2.9950    -0.8730     1.6130 ca         1 1BT      -0.107000
     10 C10          3.7800    -0.9350     2.7660 ca         1 1BT      -0.062800
     11 C11          4.9550    -1.8380     2.7950 c3         1 1BT      -0.056800
     12 C12          3.4300    -0.1430     3.8850 ca         1 1BT       0.121600
     13 N13          4.2000    -0.2350     5.0800 nu         1 1BT      -0.697300
     14 C14          5.2940     0.6470     5.2830 ca         1 1BT       0.909900
     15 N15          5.6980     0.7880     6.6010 nb         1 1BT      -0.780000
     16 C16          6.8220     1.5380     6.7360 ca         1 1BT       0.485800
     17 N17          7.5330     1.8930     7.8890 na         1 1BT      -0.386000
     18 C18          8.6120     2.6970     7.4550 cc         1 1BT       0.398700
     19 N19          8.6410     2.8840     6.1280 nd         1 1BT      -0.537100
     20 C20          7.5360     2.1730     5.6360 ca         1 1BT      -0.255200
     21 C21          7.0020     1.9700     4.3200 ca         1 1BT       0.777200
     22 N22          7.6800     2.5320     3.2450 nu         1 1BT      -0.726300
     23 C23          7.1900     2.6130     1.9250 ca         1 1BT       0.140600
     24 C24          6.6790     1.4940     1.2550 ca         1 1BT      -0.065000
     25 C25          6.2790     1.6290    -0.0870 ca         1 1BT       0.092400
     26 N26          5.7510     0.5990    -0.8890 nc         1 1BT      -0.520100
     27 C27          5.4940     1.0720    -2.0890 cd         1 1BT       0.352100
     28 S28          5.8490     2.7400    -2.3540 ss         1 1BT      -0.031100
     29 C29          6.3990     2.8900    -0.7610 ca         1 1BT      -0.103100
     30 C30          6.9150     3.9910    -0.0780 ca         1 1BT      -0.072000
     31 C31          7.3030     3.8600     1.2420 ca         1 1BT      -0.154000
     32 N32          5.8760     1.2220     4.1570 nb         1 1BT      -0.797000
     33 H1          -0.7570     0.7720     1.0930 ha         1 1BT       0.153000
     34 H2           1.6120    -0.4120    -0.5760 ha         1 1BT       0.139000
     35 H3           0.6220     1.3620     2.6260 ha         1 1BT       0.139500
     36 H4           1.0050     2.1600     4.7380 hc         1 1BT       0.050367
     37 H5           1.5920     0.8610     5.8530 hc         1 1BT       0.050367
     38 H6           2.7230     2.1730     5.3080 hc         1 1BT       0.050367
     39 H7           3.2830    -1.4750     0.7360 ha         1 1BT       0.139500
     40 H8           5.8970    -1.2510     2.9350 hc         1 1BT       0.050367
     41 H9           5.0430    -2.4170     1.8420 hc         1 1BT       0.050367
     42 H10          4.8680    -2.5630     3.6430 hc         1 1BT       0.050367
     43 H11          3.6310    -0.3590     5.8970 hn         1 1BT       0.430800
     44 H12          7.3260     1.6130     8.8110 hn         1 1BT       0.318700
     45 H13          9.3340     3.1100     8.1700 h5         1 1BT       0.073800
     46 H15          8.3660     3.2160     3.4900 hn         1 1BT       0.458800
     47 H16          6.5790     0.5150     1.7510 ha         1 1BT       0.175000
     48 H17          5.0770     0.4410    -2.8810 h5         1 1BT       0.061800
     49 H18          7.0110     4.9630    -0.5860 ha         1 1BT       0.142000
     50 H19          7.7070     4.7390     1.7700 ha         1 1BT       0.138000
@<TRIPOS>BOND
     1     1     2 3   
     2     2     3 1   
     3     3     4 2   
     4     3    33 1   
     5     4     5 1   
     6     4    34 1   
     7     5     6 ar  
     8     5     9 ar  
     9     6     7 ar  
    10     6    35 1   
    11     7     8 1   
    12     7    12 ar  
    13     8    36 1   
    14     8    37 1   
    15     8    38 1   
    16     9    10 ar  
    17     9    39 1   
    18    10    11 1   
    19    10    12 ar  
    20    11    40 1   
    21    11    41 1   
    22    11    42 1   
    23    12    13 1   
    24    13    14 1   
    25    13    43 1   
    26    14    15 ar  
    27    14    32 ar  
    28    15    16 ar  
    29    16    17 1   
    30    16    20 ar  
    31    17    18 1   
    32    17    44 1   
    33    18    19 2   
    34    18    45 1   
    35    19    20 1   
    36    20    21 ar  
    37    21    22 1   
    38    21    32 ar  
    39    22    23 1   
    40    22    46 1   
    41    23    24 ar  
    42    23    31 ar  
    43    24    25 ar  
    44    24    47 1   
    45    25    26 1   
    46    25    29 ar  
    47    26    27 2   
    48    27    28 1   
    49    27    48 1   
    50    28    29 1   
    51    29    30 ar  
    52    30    31 ar  
    53    30    49 1   
    54    31    50 1   
@<TRIPOS>SUBSTRUCTURE
     1 1BT         1 TEMP              0 ****  ****    0 ROOT
