@<TRIPOS>MOLECULE
molecule
   50    54     1     0     0
SMALL
bcc


@<TRIPOS>ATOM
      1 N01         -1.2970     0.0130    -2.2160 n1         1 1BT      -0.368800
      2 C02         -0.7160    -0.0000    -1.2400 cg         1 1BT       0.192500
      3 C03          0.0000     0.0000     0.0000 ce         1 1BT      -0.080700
      4 C04          1.3500     0.0000     0.0000 cf         1 1BT      -0.046200
      5 C05          2.0850     0.0000     1.2740 ca         1 1BT      -0.071800
      6 C06          3.4850    -0.0010     1.2750 ca         1 1BT      -0.113000
      7 C07          4.1690     0.0000     2.4690 ca         1 1BT      -0.067800
      8 C08          5.6760    -0.0010     2.4730 c3         1 1BT      -0.044800
      9 C09          1.3870     0.0070     2.4860 ca         1 1BT      -0.113000
     10 C10          2.0790     0.0080     3.6760 ca         1 1BT      -0.067800
     11 C11          1.3290     0.0150     4.9840 c3         1 1BT      -0.044800
     12 C12          3.4710     0.0020     3.6730 ca         1 1BT       0.159600
     13 N13          4.1680     0.0030     4.8800 nu         1 1BT      -0.771300
     14 C14          4.1660    -1.1270     5.6840 ca         1 1BT       0.993900
     15 N15          3.4100    -2.1570     5.3350 nb         1 1BT      -0.839000
     16 C16          3.3820    -3.2560     6.0800 ca         1 1BT       0.508800
     17 N17          2.7290    -4.4610     6.0020 na         1 1BT      -0.362000
     18 C18          3.1120    -5.2040     7.0810 cc         1 1BT       0.405700
     19 N19          3.9540    -4.5300     7.8080 nd         1 1BT      -0.577100
     20 C20          4.1650    -3.3160     7.2450 ca         1 1BT      -0.246200
     21 C21          4.9520    -2.1990     7.5760 ca         1 1BT       0.813200
     22 N22          5.7430    -2.2020     8.7120 nu         1 1BT      -0.749300
     23 C23          6.5910    -1.1200     8.9790 ca         1 1BT       0.158600
     24 C24          6.8320    -0.7440    10.2820 ca         1 1BT      -0.116000
     25 C25          7.6840     0.3430    10.5610 ca         1 1BT       0.135400
     26 N26          8.0470     0.8650    11.7480 nc         1 1BT      -0.574100
     27 C27          8.8440     1.8660    11.7420 cd         1 1BT       0.408100
     28 S28          9.2730     2.3160    10.1520 ss         1 1BT      -0.123100
     29 C29          8.2740     1.0240     9.4910 ca         1 1BT      -0.067100
     30 C30          8.0200     0.6310     8.1780 ca         1 1BT      -0.078000
     31 C31          7.1910    -0.4350     7.9230 ca         1 1BT      -0.112000
     32 N32          4.9250    -1.1410     6.7720 nb         1 1BT      -0.864000
     33 H1          -0.5420     0.0000     0.9380 ha         1 1BT       0.157000
     34 H2           1.8920    -0.0000    -0.9380 ha         1 1BT       0.141000
     35 H3           4.0280    -0.0170     0.3380 ha         1 1BT       0.137000
     36 H4           6.0350    -0.9340     2.8890 hc         1 1BT       0.047533
     37 H5           6.0400     0.1060     1.4590 hc         1 1BT       0.047533
     38 H6           6.0360     0.8250     3.0750 hc         1 1BT       0.047533
     39 H7           0.3040     0.0290     2.4880 ha         1 1BT       0.137000
     40 H8           1.9060     0.5500     5.7280 hc         1 1BT       0.047533
     41 H9           0.3720     0.5040     4.8480 hc         1 1BT       0.047533
     42 H10          1.1700    -1.0050     5.3140 hc         1 1BT       0.047533
     43 H11          4.5400     0.8590     5.2420 hn         1 1BT       0.468800
     44 H12          2.0940    -4.7400     5.2820 hn         1 1BT       0.314700
     45 H13          2.7760    -6.2070     7.3150 h5         1 1BT       0.080800
     46 H15          5.7160    -2.9820     9.3390 hn         1 1BT       0.478800
     47 H16          6.3420    -1.2660    11.0950 ha         1 1BT       0.150000
     48 H17          9.1780     2.4200    12.6110 h5         1 1BT       0.068800
     49 H18          8.4810     1.1640     7.3550 ha         1 1BT       0.138000
     50 H19          7.0240    -0.7600     6.9030 ha         1 1BT       0.166000
@<TRIPOS>BOND
     1    18    19 2
     2    18    17 1
     3    19    20 1
     4    31    30 ar
     5    31    23 ar
     6    17    16 1
     7    22    23 1
     8    22    21 1
     9    20    21 ar
    10    20    16 ar
    11    30    29 ar
    12    23    24 ar
    13    21    32 ar
    14    16    15 ar
    15    29    25 ar
    16    29    28 1
    17    32    14 ar
    18    24    25 ar
    19    15    14 ar
    20    25    26 1
    21    28    27 1
    22    14    13 1
    23    26    27 2
    24    13    12 1
    25     8     7 1
    26    12     7 ar
    27    12    10 ar
    28     7     6 ar
    29    11    10 1
    30    10     9 ar
    31     6     5 ar
    32     9     5 ar
    33     5     4 1
    34     4     3 2
    35     3     2 1
    36     2     1 3
    37     3    33 1
    38     4    34 1
    39     6    35 1
    40     8    36 1
    41     8    37 1
    42     8    38 1
    43     9    39 1
    44    11    40 1
    45    11    41 1
    46    11    42 1
    47    13    43 1
    48    17    44 1
    49    18    45 1
    50    22    46 1
    51    24    47 1
    52    27    48 1
    53    30    49 1
    54    31    50 1
@<TRIPOS>SUBSTRUCTURE
     1 1BT         1 TEMP              0 ****  ****    0 ROOT
