@<TRIPOS>MOLECULE
1BT
   50    54     1     0     0
SMALL
bcc


@<TRIPOS>ATOM
      1 N01         -1.2690    -0.0100    -2.2320 n1         1 1BT      -0.412800
      2 C02         -0.7160    -0.0000    -1.2400 cg         1 1BT       0.231500
      3 C03          0.0000     0.0000     0.0000 ce         1 1BT      -0.073700
      4 C04          1.3500     0.0000     0.0000 cf         1 1BT      -0.294200
      5 C05          2.0850     0.0000     1.2740 ca         1 1BT      -0.067800
      6 C06          3.4850    -0.0010     1.2750 ca         1 1BT      -0.100000
      7 C07          4.1690     0.0000     2.4690 ca         1 1BT      -0.061300
      8 C08          5.6760    -0.0010     2.4730 c3         1 1BT       0.034700
      9 C09          1.3870     0.0070     2.4860 ca         1 1BT      -0.100000
     10 C10          2.0790     0.0080     3.6760 ca         1 1BT      -0.061300
     11 C11          1.3290     0.0150     4.9840 c3         1 1BT       0.034700
     12 C12          3.4710     0.0020     3.6730 ca         1 1BT       0.074600
     13 N13          4.1680     0.0030     4.8800 nu         1 1BT      -0.368300
     14 C14          4.1660    -1.1270     5.6840 ca         1 1BT       0.723900
     15 N15          3.4100    -2.1570     5.3350 nb         1 1BT      -0.728000
     16 C16          3.3820    -3.2560     6.0800 ca         1 1BT       0.261800
     17 N17          2.7290    -4.4610     6.0020 na         1 1BT       0.135000
     18 C18          3.1120    -5.2040     7.0810 cc         1 1BT       0.256700
     19 N19          3.9540    -4.5300     7.8080 nd         1 1BT      -0.471100
     20 C20          4.1650    -3.3160     7.2450 ca         1 1BT      -0.267200
     21 C21          4.9520    -2.1990     7.5760 ca         1 1BT       0.632200
     22 N22          5.7430    -2.2020     8.7120 nu         1 1BT      -0.284300
     23 C23          6.5910    -1.1200     8.9790 ca         1 1BT      -0.050400
     24 C24          6.8320    -0.7440    10.2820 ca         1 1BT      -0.041000
     25 C25          7.6840     0.3430    10.5610 ca         1 1BT       0.079400
     26 N26          8.0470     0.8650    11.7480 nc         1 1BT      -0.444100
     27 C27          8.8440     1.8660    11.7420 cd         1 1BT       0.418100
     28 S28          9.2730     2.3160    10.1520 ss         1 1BT      -0.207100
     29 C29          8.2740     1.0240     9.4910 ca         1 1BT      -0.015100
     30 C30          8.0200     0.6310     8.1780 ca         1 1BT      -0.031000
     31 C31          7.1910    -0.4350     7.9230 ca         1 1BT      -0.134000
     32 N32          4.9250    -1.1410     6.7720 nb         1 1BT      -0.760000
     33 H1          -0.6000     0.1720     0.8860 ha         1 1BT       0.103000
     34 H2           2.0070     0.2210     0.8330 ha         1 1BT       0.284000
     35 H3           3.8480    -0.1340     0.2630 ha         1 1BT       0.147500
     36 H4           5.6460     0.8780     3.1060 hc         1 1BT       0.029533
     37 H5           5.8670    -0.9200     3.0140 hc         1 1BT       0.029533
     38 H6           6.2530     0.1690     1.5720 hc         1 1BT       0.029533
     39 H7           0.4040    -0.4320     2.6020 ha         1 1BT       0.147500
     40 H8           1.1960    -1.0550     5.0840 hc         1 1BT       0.029533
     41 H9           1.9150     0.2150     5.8730 hc         1 1BT       0.029533
     42 H10          0.2740     0.2140     4.8410 hc         1 1BT       0.029533
     43 H11          4.6430     0.6430     5.4850 hn         1 1BT       0.329800
     44 H12          2.4020    -4.5470     5.0600 hn         1 1BT       0.154700
     45 H13          2.8470    -6.2440     7.2240 h5         1 1BT       0.032800
     46 H15          6.2270    -2.9960     9.0820 hn         1 1BT       0.297800
     47 H16          6.4250    -1.3980    11.0440 ha         1 1BT       0.120000
     48 H17          8.9860     2.5050    12.6050 h5         1 1BT       0.030800
     49 H18          8.3610     1.1190     7.2730 ha         1 1BT       0.113000
     50 H19          6.8150    -0.7000     6.9420 ha         1 1BT       0.153000
@<TRIPOS>BOND
     1     1     2 3   
     2     2     3 1   
     3     3     4 2   
     4     3    33 1   
     5     4     5 1   
     6     4    34 1   
     7     5     6 ar  
     8     5     9 ar  
     9     6     7 ar  
    10     6    35 1   
    11     7     8 1   
    12     7    12 ar  
    13     8    36 1   
    14     8    37 1   
    15     8    38 1   
    16     9    10 ar  
    17     9    39 1   
    18    10    11 1   
    19    10    12 ar  
    20    11    40 1   
    21    11    41 1   
    22    11    42 1   
    23    12    13 1   
    24    13    14 1   
    25    13    43 1   
    26    14    15 ar  
    27    14    32 ar  
    28    15    16 ar  
    29    16    17 1   
    30    16    20 ar  
    31    17    18 1   
    32    17    44 1   
    33    18    19 2   
    34    18    45 1   
    35    19    20 1   
    36    20    21 ar  
    37    21    22 1   
    38    21    32 ar  
    39    22    23 1   
    40    22    46 1   
    41    23    24 ar  
    42    23    31 ar  
    43    24    25 ar  
    44    24    47 1   
    45    25    26 1   
    46    25    29 ar  
    47    26    27 2   
    48    27    28 1   
    49    27    48 1   
    50    28    29 1   
    51    29    30 ar  
    52    30    31 ar  
    53    30    49 1   
    54    31    50 1   
@<TRIPOS>SUBSTRUCTURE
     1 1BT         1 TEMP              0 ****  ****    0 ROOT
