@<TRIPOS>MOLECULE
molecule
   68    72     1     0     0
SMALL
bcc


@<TRIPOS>ATOM
      1 C4           0.0000     0.0000     0.0000 ca         1 1BU       0.426600
      2 C5           1.4160     0.0000     0.0000 ca         1 1BU      -0.265600
      3 C6           2.0850     0.0000     1.2500 ca         1 1BU       0.726200
      4 N1           1.3510     0.0020     2.3540 nb         1 1BU      -0.812000
      5 N3          -0.6450     0.0010     1.1780 nb         1 1BU      -0.758000
      6 CBA          8.5320    -1.3840    12.9070 ca         1 1BU      -0.064300
      7 CAQ          8.3780    -2.3240    11.9080 ca         1 1BU      -0.141000
      8 CAI          8.8180    -0.0690    12.5820 ca         1 1BU      -0.145000
      9 CAG          8.9540     0.3040    11.2580 ca         1 1BU      -0.107000
     10 CAJ          8.8060    -0.6340    10.2550 ca         1 1BU      -0.196000
     11 CBE          8.5130    -1.9520    10.5770 ca         1 1BU       0.017800
     12 NBK          8.2250    -2.8010     9.7370 na         1 1BU       0.184300
     13 NAV          8.7340    -4.1060     9.7930 nc         1 1BU      -0.505800
     14 CBF          8.8520    -4.5570     8.5700 cd         1 1BU       0.382600
     15 CBL          9.3620    -5.9190     8.1780 c3         1 1BU      -0.089300
     16 CAC          9.3730    -6.8320     9.4070 c3         1 1BU      -0.081767
     17 CAD          8.4480    -6.5190     7.1070 c3         1 1BU      -0.081767
     18 CAB         10.7820    -5.7930     7.6250 c3         1 1BU      -0.081767
     19 CAR          8.4220    -3.5610     7.6870 cd         1 1BU      -0.293300
     20 CBG          8.0340    -2.4860     8.4270 cc         1 1BU       0.112300
     21 NAX          7.2360    -0.4880     7.9860 ns         1 1BU      -0.509100
     22 CAZ          6.6960    -0.5720     6.7530 c          1 1BU       0.762100
     23 OAF          6.8230    -1.5900     6.1020 o          1 1BU      -0.635100
     24 CBC          5.3740     0.3550     5.0030 ca         1 1BU       0.051600
     25 CAL          4.1640     0.9990     4.7830 ca         1 1BU      -0.129000
     26 CAN          3.5310     0.8810     3.5630 ca         1 1BU      -0.127500
     27 CAK          5.9520    -0.4030     3.9930 ca         1 1BU      -0.129000
     28 CAM          5.3190    -0.5200     2.7710 ca         1 1BU      -0.127500
     29 CBD          4.1060     0.1200     2.5530 ca         1 1BU       0.132600
     30 NAY          3.4630    -0.0010     1.3150 nu         1 1BU      -0.756300
     31 CAS          2.1120    -0.0010    -1.2130 ca         1 1BU      -0.204000
     32 CBB          1.4030    -0.0020    -2.3980 ca         1 1BU       0.195600
     33 NAE          2.0900    -0.0040    -3.6150 nv         1 1BU      -0.919200
     34 CAO          0.0050    -0.0020    -2.3910 ca         1 1BU      -0.159000
     35 CAP         -0.6900    -0.0060    -1.2200 ca         1 1BU      -0.134300
     36 C2           0.0280     0.0020     2.3040 ca         1 1BU       0.701900
     37 HAA          8.6560    -0.9540    14.9880 hc         1 1BU       0.045700
     38 HAAA         7.3570    -2.0690    14.5440 hc         1 1BU       0.045700
     39 HAAB         9.0350    -2.6280    14.5590 hc         1 1BU       0.045700
     40 HAQ          8.1490    -3.3520    12.1630 ha         1 1BU       0.156000
     41 HAI          8.9350     0.6680    13.3670 ha         1 1BU       0.131000
     42 HAG          9.1800     1.3340    11.0070 ha         1 1BU       0.131000
     43 HAJ          8.9120    -0.3390     9.2180 ha         1 1BU       0.163000
     44 HAC          9.6990    -7.8230     9.1170 hc         1 1BU       0.042367
     45 HACA         8.3760    -6.8870     9.8250 hc         1 1BU       0.042367
     46 HACB        10.0540    -6.4310    10.1480 hc         1 1BU       0.042367
     47 HAD          8.5770    -5.9770     6.1780 hc         1 1BU       0.042367
     48 HADA         7.4160    -6.4430     7.4290 hc         1 1BU       0.042367
     49 HADB         8.7030    -7.5600     6.9560 hc         1 1BU       0.042367
     50 HAB         11.4140    -5.3060     8.3580 hc         1 1BU       0.042367
     51 HABA        11.1740    -6.7800     7.4090 hc         1 1BU       0.042367
     52 HABB        10.7640    -5.2050     6.7150 hc         1 1BU       0.042367
     53 HAR          8.3980    -3.6330     6.6060 ha         1 1BU       0.189000
     54 HNAX         6.9780     0.1240     8.7350 hn         1 1BU       0.315500
     55 HNAW         5.9330     1.3210     6.7690 hn         1 1BU       0.317500
     56 HAL          3.7150     1.5930     5.5710 ha         1 1BU       0.150000
     57 HAN          2.5860     1.3810     3.3920 ha         1 1BU       0.146500
     58 HAK          6.8980    -0.9010     4.1630 ha         1 1BU       0.150000
     59 HAM          5.7690    -1.1120     1.9830 ha         1 1BU       0.146500
     60 HNAY         4.0040    -0.0970     0.4790 hn         1 1BU       0.457800
     61 HAS          3.1830     0.1580    -1.2230 ha         1 1BU       0.124000
     62 HNAE         1.5810    -0.0040    -4.4770 hn         1 1BU       0.430800
     63 HNAA         3.0900    -0.0010    -3.6250 hn         1 1BU       0.430800
     64 HAO         -0.5340    -0.0020    -3.3310 ha         1 1BU       0.134000
     65 HAP         -1.7730    -0.0060    -1.2320 ha         1 1BU       0.153000
     66 H2          -0.5240     0.0030     3.2360 h5         1 1BU       0.055100
     67 NAW          6.0160     0.4740     6.2430 ns         1 1BU      -0.491100
     68 CAA          8.3850    -1.7870    14.3510 c3         1 1BU      -0.048800
@<TRIPOS>BOND
     1    35     1 ar
     2     1     2 ar
     3     1     5 ar
     4    31     2 ar
     5     2     3 ar
     6     3    30 1
     7     3     4 ar
     8    36     4 ar
     9     5    36 ar
    10    68     6 1
    11    68    37 1
    12    68    38 1
    13    68    39 1
    14     7     6 ar
    15     6     8 ar
    16     7    11 ar
    17     7    40 1
    18     8     9 ar
    19     8    41 1
    20    10     9 ar
    21     9    42 1
    22    11    10 ar
    23    10    43 1
    24    12    11 1
    25    13    12 1
    26    20    12 1
    27    14    13 2
    28    15    14 1
    29    14    19 1
    30    17    15 1
    31    16    15 1
    32    15    18 1
    33    16    44 1
    34    16    45 1
    35    16    46 1
    36    17    47 1
    37    17    48 1
    38    17    49 1
    39    18    50 1
    40    18    51 1
    41    18    52 1
    42    19    20 2
    43    19    53 1
    44    20    21 1
    45    22    21 1
    46    21    54 1
    47    23    22 2
    48    22    67 1
    49    24    67 1
    50    67    55 1
    51    27    24 ar
    52    24    25 ar
    53    26    25 ar
    54    25    56 1
    55    29    26 ar
    56    26    57 1
    57    28    27 ar
    58    27    58 1
    59    28    29 ar
    60    28    59 1
    61    30    29 1
    62    30    60 1
    63    32    31 ar
    64    31    61 1
    65    33    32 1
    66    32    34 ar
    67    33    62 1
    68    33    63 1
    69    34    35 ar
    70    34    64 1
    71    35    65 1
    72    36    66 1
@<TRIPOS>SUBSTRUCTURE
     1 1BU         1 TEMP              0 ****  ****    0 ROOT
