@<TRIPOS>MOLECULE
1BU
   68    72     1     0     0
SMALL
bcc


@<TRIPOS>ATOM
      1 C4           0.2170    -0.6860    -0.1640 ca         1 1BU       0.395600
      2 C5           1.5810    -0.2770    -0.0520 ca         1 1BU      -0.240600
      3 C6           2.0810    -0.0540     1.3120 ca         1 1BU       0.680200
      4 N1           1.2810    -0.2460     2.3820 nb         1 1BU      -0.759000
      5 N3          -0.5850    -0.8770     0.9480 nb         1 1BU      -0.702000
      6 CBA         10.5530     3.0190     6.6340 ca         1 1BU      -0.066300
      7 CAQ          9.3940     3.6510     7.0940 ca         1 1BU      -0.140000
      8 CAI         11.6470     2.8650     7.4920 ca         1 1BU      -0.129000
      9 CAG         11.5860     3.3450     8.7970 ca         1 1BU      -0.123000
     10 CAJ         10.4370     3.9700     9.2730 ca         1 1BU      -0.120000
     11 CBE          9.3250     4.1160     8.4210 ca         1 1BU       0.008800
     12 NBK          8.1360     4.7480     8.8900 na         1 1BU       0.135300
     13 NAV          8.1370     5.9210     9.5380 nc         1 1BU      -0.478800
     14 CBF          6.8470     6.2010     9.8770 cd         1 1BU       0.313600
     15 CBL          6.3820     7.4310    10.5920 c3         1 1BU      -0.074300
     16 CAC          7.5380     8.3650    10.9290 c3         1 1BU      -0.084767
     17 CAD          5.3910     8.1700     9.6980 c3         1 1BU      -0.084767
     18 CAB          5.6870     7.0150    11.8850 c3         1 1BU      -0.084767
     19 CAR          5.9730     5.1310     9.4420 cd         1 1BU      -0.240300
     20 CBG          6.8180     4.1940     8.8190 cc         1 1BU      -0.001700
     21 NAX          6.4760     2.9450     8.2860 ns         1 1BU      -0.433100
     22 CAZ          6.1500     2.8510     6.9000 c          1 1BU       0.750100
     23 OAF          6.0780     3.8740     6.1870 o          1 1BU      -0.593100
     24 CBC          5.2530     1.3090     5.1780 ca         1 1BU       0.042600
     25 CAL          4.5170     0.1100     5.0370 ca         1 1BU      -0.142500
     26 CAN          3.9020    -0.2160     3.8370 ca         1 1BU      -0.118000
     27 CAK          5.3380     2.1760     4.0710 ca         1 1BU      -0.142500
     28 CAM          4.7050     1.8580     2.8770 ca         1 1BU      -0.118000
     29 CBD          3.9780     0.6570     2.7320 ca         1 1BU       0.113600
     30 NAY          3.4240     0.3140     1.4770 nu         1 1BU      -0.717300
     31 CAS          2.3630    -0.1160    -1.2130 ca         1 1BU      -0.179000
     32 CBB          1.8240    -0.3420    -2.4820 ca         1 1BU       0.135600
     33 NAE          2.6170    -0.2770    -3.6310 nv         1 1BU      -0.819200
     34 CAO          0.4500    -0.7320    -2.5870 ca         1 1BU      -0.150000
     35 CAP         -0.3210    -0.9020    -1.4710 ca         1 1BU      -0.143300
     36 C2          -0.0080    -0.6570     2.1270 ca         1 1BU       0.653900
     37 HAA         10.9900     3.3660     4.5700 hc         1 1BU       0.049033
     38 HAAA         9.6200     2.2180     4.8660 hc         1 1BU       0.049033
     39 HAAB        11.3310     1.6790     5.1410 hc         1 1BU       0.049033
     40 HAQ          8.5420     3.7950     6.4060 ha         1 1BU       0.161000
     41 HAI         12.5600     2.3690     7.1290 ha         1 1BU       0.136000
     42 HAG         12.4550     3.2320     9.4640 ha         1 1BU       0.138000
     43 HAJ         10.4080     4.3560    10.3040 ha         1 1BU       0.153000
     44 HAC          8.0590     8.6950     9.9990 hc         1 1BU       0.038922
     45 HACA         7.1480     9.2670    11.4590 hc         1 1BU       0.038922
     46 HACB         8.2760     7.8530    11.5910 hc         1 1BU       0.038922
     47 HAD          4.5330     7.5060     9.4380 hc         1 1BU       0.038922
     48 HADA         5.8900     8.4960     8.7550 hc         1 1BU       0.038922
     49 HADB         5.0010     9.0710    10.2290 hc         1 1BU       0.038922
     50 HAB          6.4050     6.4910    12.5600 hc         1 1BU       0.038922
     51 HABA         4.8350     6.3290    11.6650 hc         1 1BU       0.038922
     52 HABB         5.2950     7.9180    12.4110 hc         1 1BU       0.038922
     53 HAR          4.8970     5.0710     9.5670 ha         1 1BU       0.174000
     54 HNAX         6.9710     2.1780     8.6900 hn         1 1BU       0.309500
     55 HNAW         5.8210     0.8200     7.0650 hn         1 1BU       0.308500
     56 HAL          4.4260    -0.5930     5.8800 ha         1 1BU       0.152500
     57 HAN          3.3470    -1.1650     3.7630 ha         1 1BU       0.144500
     58 HAK          5.8920     3.1270     4.1440 ha         1 1BU       0.152500
     59 HAM          4.7850     2.5670     2.0370 ha         1 1BU       0.144500
     60 HNAY         3.7920     0.8490     0.7170 hn         1 1BU       0.425800
     61 HAS          3.4240     0.1640    -1.1340 ha         1 1BU       0.131000
     62 HNAE         2.1130    -0.1050    -4.4730 hn         1 1BU       0.393800
     63 HNAA         3.4400     0.2750    -3.5400 hn         1 1BU       0.393800
     64 HAO          0.0150    -0.9080    -3.5840 ha         1 1BU       0.139000
     65 HAP         -1.3750    -1.2120    -1.5630 ha         1 1BU       0.156000
     66 H2          -0.6300    -0.8070     3.0340 h5         1 1BU       0.052100
     67 NAW          5.9250     1.5530     6.3950 ns         1 1BU      -0.449100
     68 CAA         10.6250     2.5410     5.2330 c3         1 1BU      -0.057800
@<TRIPOS>BOND
     1     1     2 ar  
     2     1     5 ar  
     3     1    35 ar  
     4     2     3 ar  
     5     2    31 ar  
     6     3     4 ar  
     7     3    30 1   
     8     4    36 ar  
     9     5    36 ar  
    10     6     7 ar  
    11     6     8 ar  
    12     6    68 1   
    13     7    11 ar  
    14     7    40 1   
    15     8     9 ar  
    16     8    41 1   
    17     9    10 ar  
    18     9    42 1   
    19    10    11 ar  
    20    10    43 1   
    21    11    12 1   
    22    12    13 1   
    23    12    20 1   
    24    13    14 2   
    25    14    15 1   
    26    14    19 1   
    27    15    16 1   
    28    15    17 1   
    29    15    18 1   
    30    16    44 1   
    31    16    45 1   
    32    16    46 1   
    33    17    47 1   
    34    17    48 1   
    35    17    49 1   
    36    18    50 1   
    37    18    51 1   
    38    18    52 1   
    39    19    20 2   
    40    19    53 1   
    41    20    21 1   
    42    21    22 1   
    43    21    54 1   
    44    22    23 2   
    45    22    67 1   
    46    24    25 ar  
    47    24    27 ar  
    48    24    67 1   
    49    25    26 ar  
    50    25    56 1   
    51    26    29 ar  
    52    26    57 1   
    53    27    28 ar  
    54    27    58 1   
    55    28    29 ar  
    56    28    59 1   
    57    29    30 1   
    58    30    60 1   
    59    31    32 ar  
    60    31    61 1   
    61    32    33 1   
    62    32    34 ar  
    63    33    62 1   
    64    33    63 1   
    65    34    35 ar  
    66    34    64 1   
    67    35    65 1   
    68    36    66 1   
    69    37    68 1   
    70    38    68 1   
    71    39    68 1   
    72    55    67 1   
@<TRIPOS>SUBSTRUCTURE
     1 1BU         1 TEMP              0 ****  ****    0 ROOT
