@<TRIPOS>MOLECULE
1BU
   68    68     1     0     0
SMALL
bcc


@<TRIPOS>ATOM
      1 C4          1.0120    1.4750    3.4910 c2        1 1BU     -0.035000
      2 C5          2.3500    1.0060    3.0360 c2        1 1BU     -0.147000
      3 C6          3.3090    0.5290    3.8980 c2        1 1BU      0.164000
      4 N1          3.1080    0.5490    5.2750 n2        1 1BU     -0.284000
      5 N3          0.7520    2.3480    4.4010 n2        1 1BU     -0.167000
      6 CBA         7.1230   -2.0860   12.0690 c1        1 1BU     -0.141000
      7 CAQ         7.7580   -2.4830   10.8850 c2        1 1BU     -0.055000
      8 CAI         4.1670   -1.3420    8.9210 c1        1 1BU     -0.182000
      9 CAG         4.8380   -2.2340    9.3560 c1        1 1BU     -0.214000
     10 CAJ         5.6190   -3.3040    9.9050 c3        1 1BU     -0.030000
     11 CBE         7.1050   -3.0530    9.8370 c2        1 1BU      0.010000
     12 NBK         7.8090   -3.3690    8.6300 n3        1 1BU     -0.146000
     13 NAV         9.0470   -3.9490    8.7390 n2        1 1BU     -0.017000
     14 CBF         9.2580   -4.8530    7.7970 c2        1 1BU     -0.078000
     15 CBL        10.5380   -5.5610    7.5060 c3        1 1BU     -0.045000
     16 CAC        11.3760   -5.7750    8.7500 c3        1 1BU     -0.209500
     17 CAD         6.8020   -5.5300    7.5750 cx        1 1BU     -0.179000
     18 CAB        11.3220   -4.7940    6.4560 c3        1 1BU     -0.209500
     19 CAR         8.0580   -5.0490    6.9010 cx        1 1BU     -0.127000
     20 CBG         7.0540   -4.0220    7.5080 cx        1 1BU     -0.003000
     21 NAX         6.1980   -3.1660    6.7470 n3        1 1BU     -0.233000
     22 CAZ         6.5410   -2.5710    5.5940 c2        1 1BU      0.292000
     23 OAF         7.6620   -2.8970    4.9880 os        1 1BU     -0.163000
     24 CBC         9.1800   -2.0410    1.7700 c1        1 1BU     -0.044000
     25 CAL         6.3640    2.3260    5.4500 c2        1 1BU     -0.134000
     26 CAN         6.0270    1.3410    4.6790 c1        1 1BU     -0.239000
     27 CAK         8.8700   -2.5870    3.0330 c2        1 1BU     -0.295000
     28 CAM         7.7700   -2.1790    3.7040 c1        1 1BU     -0.196000
     29 CBD         5.7610    0.3140    3.9070 c2        1 1BU     -0.062000
     30 NAY         4.4980   -0.1130    3.4560 n3        1 1BU     -0.244000
     31 CAS         2.5350    1.0660    1.6030 c2        1 1BU     -0.252000
     32 CBB         1.4710    1.0070    0.7470 c2        1 1BU      0.027000
     33 NAE         1.5850    1.2260   -0.6200 n3        1 1BU     -0.333000
     34 CAO         0.0870    0.7500    1.2920 c3        1 1BU     -0.212000
     35 CAP        -0.0550    0.8050    2.7410 c1        1 1BU      0.080000
     36 C2          2.9700    0.5110    6.4480 c1        1 1BU      0.124000
     37 HAA         6.1790   -1.4110   14.0070 ha        1 1BU      0.227000
     38 HAAA        2.0560    1.2620    9.3760 ha        1 1BU      0.000500
     39 HAAB        2.1530    1.2170    8.7070 ha        1 1BU      0.000500
     40 HAQ         8.8510   -2.3020   10.8600 ha        1 1BU      0.169000
     41 HAI         3.5670   -0.5460    8.5350 ha        1 1BU      0.255000
     42 HAG         5.3380   -3.4360   10.9920 hc        1 1BU      0.117500
     43 HAJ         5.3580   -4.2700    9.3840 hc        1 1BU      0.117500
     44 HAC        10.7880   -6.3140    9.5310 hc        1 1BU      0.085500
     45 HACA       11.7180   -4.8000    9.1720 hc        1 1BU      0.085500
     46 HACB       12.2760   -6.3850    8.4950 hc        1 1BU      0.085500
     47 HAD        10.2610   -6.5710    7.0830 hc        1 1BU      0.100000
     48 HADA        6.8600   -6.0330    8.5580 hc        1 1BU      0.136000
     49 HADB        6.0080   -5.9570    6.9350 hc        1 1BU      0.136000
     50 HAB        10.7010   -4.6320    5.5420 hc        1 1BU      0.085500
     51 HABA       12.2350   -5.3720    6.1730 hc        1 1BU      0.085500
     52 HABB       11.6390   -3.7990    6.8510 hc        1 1BU      0.085500
     53 HAR         8.2390   -5.1840    5.8250 hc        1 1BU      0.177000
     54 HNAX        5.3850   -2.8220    7.2290 hn        1 1BU      0.280000
     55 HNAW        5.8440   -1.8360    5.1150 h5        1 1BU      0.236000
     56 HAL         6.3810    2.2430    6.5470 ha        1 1BU      0.128000
     57 HAN         6.6620    3.3080    5.0490 ha        1 1BU      0.128000
     58 HAK         9.5840   -3.3420    3.4050 ha        1 1BU      0.119000
     59 HAM         6.5820   -0.3780    3.5610 h4        1 1BU      0.232000
     60 HNAY        4.4850   -0.3030    2.4710 hn        1 1BU      0.227000
     61 HAS         3.5570    1.2240    1.2270 ha        1 1BU      0.138000
     62 HNAE        2.5080    1.1920   -0.9890 hn        1 1BU      0.197000
     63 HNAA        0.9010    0.7730   -1.1830 hn        1 1BU      0.197000
     64 HAO        -0.2690   -0.2630    0.9440 hc        1 1BU      0.155000
     65 HAP        -0.6550    1.5060    0.8890 hc        1 1BU      0.155000
     66 H2          1.5470    2.7470    4.8580 hn        1 1BU      0.147000
     67 NAW         9.4460   -1.6020    0.7240 n1        1 1BU     -0.119000
     68 CAA         6.6210   -1.7300   13.0970 c1        1 1BU     -0.187000
@<TRIPOS>BOND
     1    1    2 1   
     2    1    5 1   
     3    1   35 1   
     4    2    3 1   
     5    2   31 1   
     6    3    4 1   
     7    3   30 1   
     8    4   36 1   
     9    5   66 1   
    10    6    7 1   
    11    6   68 1   
    12    7   11 1   
    13    7   40 1   
    14    8    9 1   
    15    8   41 1   
    16    9   10 1   
    17   10   11 1   
    18   10   42 1   
    19   10   43 1   
    20   11   12 1   
    21   12   13 1   
    22   12   20 1   
    23   13   14 1   
    24   14   15 1   
    25   14   19 1   
    26   15   16 1   
    27   15   18 1   
    28   15   47 1   
    29   16   44 1   
    30   16   45 1   
    31   16   46 1   
    32   17   19 1   
    33   17   20 1   
    34   17   48 1   
    35   17   49 1   
    36   18   50 1   
    37   18   51 1   
    38   18   52 1   
    39   19   20 1   
    40   19   53 1   
    41   20   21 1   
    42   21   22 1   
    43   21   54 1   
    44   22   23 1   
    45   22   55 1   
    46   23   28 1   
    47   24   27 1   
    48   24   67 1   
    49   25   26 1   
    50   25   56 1   
    51   25   57 1   
    52   26   29 1   
    53   27   28 1   
    54   27   58 1   
    55   29   30 1   
    56   29   59 1   
    57   30   60 1   
    58   31   32 1   
    59   31   61 1   
    60   32   33 1   
    61   32   34 1   
    62   33   62 1   
    63   33   63 1   
    64   34   35 1   
    65   34   64 1   
    66   34   65 1   
    67   37   68 1   
    68   38   39 1   
@<TRIPOS>SUBSTRUCTURE
     1 1BU         1 TEMP              0 ****  ****    0 ROOT
