@<TRIPOS>MOLECULE
1BX
   30    31     1     0     0
SMALL
bcc


@<TRIPOS>ATOM
      1 C01          0.0110     0.6300     0.3030 cc         1 1BX      -0.251000
      2 C02          1.3210     0.2500     0.1120 cd         1 1BX       0.094400
      3 C03          1.3330    -0.8320     2.3370 c          1 1BX       0.683700
      4 C04         -0.0460    -0.4040     2.4900 cd         1 1BX      -0.271200
      5 C05         -0.6820     0.3010     1.5090 cc         1 1BX       0.031800
      6 C06         -2.0860     0.7510     1.6570 c3         1 1BX      -0.068900
      7 C07          2.1100     0.6240    -1.1120 c3         1 1BX       0.004100
      8 C08          1.2860     1.2170    -2.1990 ca         1 1BX      -0.125300
      9 C09          0.7070     0.3970    -3.1740 ca         1 1BX      -0.083500
     10 C10         -0.0330     0.9470    -4.2170 ca         1 1BX      -0.186000
     11 C11         -0.1920     2.3380    -4.2850 ca         1 1BX       0.129100
     12 C12          0.3870     3.1760    -3.3170 ca         1 1BX      -0.186000
     13 C            1.1210     2.6070    -2.2840 ca         1 1BX      -0.083500
     14 N            1.9530    -0.5190     1.0910 n          1 1BX      -0.223500
     15 O01          2.0080    -1.4830     3.1590 o          1 1BX      -0.652500
     16 O02         -0.9080     2.9570    -5.2830 oh         1 1BX      -0.495100
     17 O            3.2590    -0.7260     0.9330 oh         1 1BX      -0.402100
     18 H1          -0.5100     1.2020    -0.4770 ha         1 1BX       0.163000
     19 H2          -0.5190    -0.6670     3.4460 ha         1 1BX       0.166000
     20 H3          -2.7170     0.3020     0.8490 hc         1 1BX       0.054700
     21 H4          -2.5090     0.4520     2.6470 hc         1 1BX       0.054700
     22 H5          -2.1420     1.8650     1.5660 hc         1 1BX       0.054700
     23 H6           2.6390    -0.2920    -1.5000 hc         1 1BX       0.078700
     24 H7           2.9100     1.3510    -0.7970 hc         1 1BX       0.078700
     25 H8           0.8370    -0.6950    -3.1170 ha         1 1BX       0.138500
     26 H9          -0.4860     0.2980    -4.9790 ha         1 1BX       0.145500
     27 H10          0.2540     4.2650    -3.3910 ha         1 1BX       0.145500
     28 H11          1.5810     3.2570    -1.5230 ha         1 1BX       0.138500
     29 H12         -1.2390     2.2720    -5.8820 ho         1 1BX       0.421000
     30 H13          3.4790    -1.5180     1.4730 ho         1 1BX       0.449000
@<TRIPOS>BOND
     1     1     2 2   
     2     1     5 1   
     3     1    18 1   
     4     2     7 1   
     5     2    14 1   
     6     3     4 1   
     7     3    14 1   
     8     3    15 2   
     9     4     5 2   
    10     4    19 1   
    11     5     6 1   
    12     6    20 1   
    13     6    21 1   
    14     6    22 1   
    15     7     8 1   
    16     7    23 1   
    17     7    24 1   
    18     8     9 ar  
    19     8    13 ar  
    20     9    10 ar  
    21     9    25 1   
    22    10    11 ar  
    23    10    26 1   
    24    11    12 ar  
    25    11    16 1   
    26    12    13 ar  
    27    12    27 1   
    28    13    28 1   
    29    14    17 1   
    30    16    29 1   
    31    17    30 1   
@<TRIPOS>SUBSTRUCTURE
     1 1BX         1 TEMP              0 ****  ****    0 ROOT
