@<TRIPOS>MOLECULE
1BX
   30    31     1     0     0
SMALL
bcc


@<TRIPOS>ATOM
      1 C01          0.0000     0.0000     0.0000 cc         1 1BX      -0.207000
      2 C02          1.3540     0.0000     0.0000 cd         1 1BX      -0.109600
      3 C03          1.4040     0.0010     2.3500 c          1 1BX       0.569700
      4 C04         -0.0020     0.0130     2.3860 cd         1 1BX      -0.252200
      5 C05         -0.7000     0.0070     1.2150 cc         1 1BX      -0.003200
      6 C06         -2.2070     0.0080     1.2250 c3         1 1BX       0.054100
      7 C07          2.0990     0.0000    -1.3100 c3         1 1BX       0.093100
      8 C08          2.4560     1.4150    -1.6860 ca         1 1BX      -0.120300
      9 C09          1.5790     2.1690    -2.4420 ca         1 1BX      -0.069000
     10 C10          1.9030     3.4670    -2.7870 ca         1 1BX      -0.137000
     11 C11          3.1100     4.0140    -2.3740 ca         1 1BX       0.129100
     12 C12          3.9870     3.2540    -1.6140 ca         1 1BX      -0.137000
     13 C            3.6560     1.9590    -1.2660 ca         1 1BX      -0.069000
     14 N            2.0470     0.0000     1.1670 n          1 1BX       0.273500
     15 O01          2.0400     0.0020     3.3920 o          1 1BX      -0.705500
     16 O02          3.4300     5.2900    -2.7120 oh         1 1BX      -0.501100
     17 O            3.4620    -0.0110     1.1410 oh         1 1BX      -0.465100
     18 H1          -0.5420    -0.0050    -0.9380 ha         1 1BX       0.129000
     19 H2          -0.5250     0.0160     3.3350 ha         1 1BX       0.142000
     20 H3          -2.5660     1.0200     1.3680 hc         1 1BX       0.013367
     21 H4          -2.5620    -0.6190     2.0340 hc         1 1BX       0.013367
     22 H5          -2.5740    -0.3760     0.2810 hc         1 1BX       0.013367
     23 H6           1.4730    -0.4320    -2.0810 hc         1 1BX       0.031700
     24 H7           3.0040    -0.5860    -1.2100 hc         1 1BX       0.031700
     25 H8           0.6380     1.7420    -2.7650 ha         1 1BX       0.111000
     26 H9           1.2160     4.0580    -3.3810 ha         1 1BX       0.115000
     27 H10          4.9290     3.6790    -1.2870 ha         1 1BX       0.115000
     28 H11          4.3410     1.3650    -0.6730 ha         1 1BX       0.111000
     29 H12          3.1170     5.8800    -2.0470 ho         1 1BX       0.404000
     30 H13          3.7800    -0.7360     1.6530 ho         1 1BX       0.424000
@<TRIPOS>BOND
     1     1     2 2   
     2     1     5 1   
     3     1    18 1   
     4     2     7 1   
     5     2    14 1   
     6     3     4 1   
     7     3    14 1   
     8     3    15 2   
     9     4     5 2   
    10     4    19 1   
    11     5     6 1   
    12     6    20 1   
    13     6    21 1   
    14     6    22 1   
    15     7     8 1   
    16     7    23 1   
    17     7    24 1   
    18     8     9 ar  
    19     8    13 ar  
    20     9    10 ar  
    21     9    25 1   
    22    10    11 ar  
    23    10    26 1   
    24    11    12 ar  
    25    11    16 1   
    26    12    13 ar  
    27    12    27 1   
    28    13    28 1   
    29    14    17 1   
    30    16    29 1   
    31    17    30 1   
@<TRIPOS>SUBSTRUCTURE
     1 1BX         1 TEMP              0 ****  ****    0 ROOT
