@<TRIPOS>MOLECULE
molecule
   25    25     1     0     0
SMALL
bcc


@<TRIPOS>ATOM
      1 C5           0.0000     0.0000     0.0000 ca         1 1BY      -0.065000
      2 C4           1.4680     0.0000     0.0000 ca         1 1BY      -0.371300
      3 C6          -0.6590     0.0410     1.1610 ca         1 1BY      -0.608300
      4 C7           0.1170     0.0480     2.4030 ca         1 1BY       0.458200
      5 N2           1.3880     0.0210     2.3760 nb         1 1BY      -0.810000
      6 C3           2.1590     0.0000     1.1510 ca         1 1BY       0.563200
      7 N1           3.4750    -0.0550     1.0750 nu         1 1BY      -0.798900
      8 C2           4.1060    -0.0940    -0.2480 c3         1 1BY       0.203800
      9 C1           5.4180     0.7130    -0.2400 c3         1 1BY      -0.559100
     10 P1           6.6300     0.0160    -1.4130 p5         1 1BY       1.290200
     11 O1           6.8230    -1.4210    -1.0340 o          1 1BY      -0.869833
     12 O2           6.1260     0.1140    -2.8060 o          1 1BY      -0.869833
     13 O3           7.9660     0.6650    -1.3030 o          1 1BY      -0.869833
     14 P2           5.1240     2.5040    -0.3860 p5         1 1BY       1.290200
     15 O4           4.2140     2.8220    -1.5270 o          1 1BY      -0.869833
     16 O5           4.5150     3.0110     0.8870 o          1 1BY      -0.869833
     17 O6           6.4180     3.2190    -0.6260 o          1 1BY      -0.869833
     18 H5          -0.5450    -0.0030    -0.9360 ha         1 1BY       0.029000
     19 H4           2.0010    -0.0020    -0.9430 ha         1 1BY       0.121000
     20 H6          -1.7420     0.0410     1.1840 ha         1 1BY       0.044000
     21 H7          -0.3980     0.0720     3.3560 h4         1 1BY      -0.106900
     22 HN1          4.0160    -0.2490     1.8940 hn         1 1BY       0.386800
     23 H21          3.4300     0.3300    -0.9800 h1         1 1BY       0.033700
     24 H22          4.3210    -1.1220    -0.5110 h1         1 1BY       0.033700
     25 H1           5.8480     0.5680     0.7440 hc         1 1BY       0.085700
@<TRIPOS>BOND
     1     1     2 ar  
     2     1     3 ar  
     3     1    18 1   
     4     2     6 ar  
     5     2    19 1   
     6     3     4 ar  
     7     3    20 1   
     8     4     5 ar  
     9     4    21 1   
    10     5     6 ar  
    11     6     7 1   
    12     7     8 1   
    13     7    22 1   
    14     8     9 1   
    15     8    23 1   
    16     8    24 1   
    17     9    10 1   
    18     9    14 1   
    19     9    25 1   
    20    10    11 1   
    21    10    13 1   
    22    10    12 1   
    23    14    17 1   
    24    14    16 1   
    25    14    15 1   
@<TRIPOS>SUBSTRUCTURE
     1 1BY         1 TEMP              0 ****  ****    0 ROOT
