@<TRIPOS>MOLECULE
molecule
   25    25     1     0     0
SMALL
bcc


@<TRIPOS>ATOM
      1 C5           0.0000     0.0000     0.0000 ca         1 1BY      -0.081000
      2 C4           1.3900     0.0000     0.0000 ca         1 1BY      -0.328300
      3 C6          -0.6900    -0.0010     1.2060 ca         1 1BY      -0.462300
      4 C7           0.0510     0.0000     2.3780 ca         1 1BY       0.437200
      5 N2           1.4020     0.0000     2.4180 nb         1 1BY      -0.748000
      6 C3           2.0690     0.0000     1.2250 ca         1 1BY       0.670200
      7 N1           3.4560     0.0000     1.2090 nu         1 1BY      -0.711900
      8 C2           4.2430     0.0010     0.0010 c3         1 1BY       0.247800
      9 C1           5.7460     0.0330     0.3260 c3         1 1BY      -0.384100
     10 P1           6.2810    -1.5570     1.0710 p5         1 1BY       1.103700
     11 O1           5.5850    -1.9110     2.3520 o          1 1BY      -0.948833
     12 O2           7.8870    -1.4130     1.1750 o          1 1BY      -0.948833
     13 O3           6.0790    -2.6160    -0.1330 o          1 1BY      -0.948833
     14 P2           6.2260     1.6580     1.0310 p5         1 1BY       1.103700
     15 O4           7.8350     1.5710     1.1370 o          1 1BY      -0.948833
     16 O5           5.9860     2.6780    -0.1980 o          1 1BY      -0.948833
     17 O6           5.5160     2.0190     2.3020 o          1 1BY      -0.948833
     18 H5          -0.5440    -0.0000    -0.9370 ha         1 1BY       0.066000
     19 H4           1.9400     0.0000    -0.9330 ha         1 1BY       0.145000
     20 H6          -1.7730    -0.0010     1.2300 ha         1 1BY       0.065000
     21 H7          -0.4860    -0.0000     3.3190 h4         1 1BY      -0.050900
     22 HN1          3.9370     0.0000     2.0860 hn         1 1BY       0.512800
     23 H21          3.9880     0.8720    -0.5900 h1         1 1BY       0.011700
     24 H22          4.0210    -0.8930    -0.5690 h1         1 1BY       0.011700
     25 H1           6.2270     0.0290    -0.6450 hc         1 1BY       0.084700
@<TRIPOS>BOND
     1     1     2 ar  
     2     1     3 ar  
     3     1    18 1   
     4     2     6 ar  
     5     2    19 1   
     6     3     4 ar  
     7     3    20 1   
     8     4     5 ar  
     9     4    21 1   
    10     5     6 ar  
    11     6     7 1   
    12     7     8 1   
    13     7    22 1   
    14     8     9 1   
    15     8    23 1   
    16     8    24 1   
    17     9    10 1   
    18     9    14 1   
    19     9    25 1   
    20    10    11 1   
    21    10    13 1   
    22    10    12 1   
    23    14    17 1   
    24    14    16 1   
    25    14    15 1   
@<TRIPOS>SUBSTRUCTURE
     1 1BY         1 TEMP              0 ****  ****    0 ROOT
