@<TRIPOS>MOLECULE
1BZ
   29    30     1     0     0
SMALL
bcc


@<TRIPOS>ATOM
      1 C1          -0.2380    -0.2440     0.0800 cc         1 1BZ      -0.253000
      2 C2           1.1140    -0.0250    -0.0850 cd         1 1BZ       0.099400
      3 N1           1.9180     0.1400     1.0380 n          1 1BZ      -0.217500
      4 C3           1.3810     0.1930     2.3610 c          1 1BZ       0.684700
      5 C4          -0.0480    -0.0280     2.4810 cd         1 1BZ      -0.270200
      6 C5          -0.8290    -0.2390     1.3810 cc         1 1BZ       0.032800
      7 O1           2.1900     0.3730     3.2930 o          1 1BZ      -0.650500
      8 C6           1.7170     0.0030    -1.4630 c3         1 1BZ       0.000100
      9 C7           1.4600     3.8760    -3.2860 ca         1 1BZ      -0.125000
     10 C8           2.3530     3.6550    -2.2370 ca         1 1BZ      -0.129500
     11 C9           2.4310     2.3990    -1.6390 ca         1 1BZ      -0.118500
     12 C10          1.6140     1.3540    -2.0860 ca         1 1BZ      -0.088300
     13 C11          0.7200     1.5800    -3.1380 ca         1 1BZ      -0.118500
     14 C12          0.6450     2.8380    -3.7360 ca         1 1BZ      -0.129500
     15 C13         -2.2900    -0.4570     1.4910 c3         1 1BZ      -0.068900
     16 O2           3.1900     0.4740     0.8350 oh         1 1BZ      -0.401100
     17 H1          -0.8730    -0.4090    -0.8000 ha         1 1BZ       0.153000
     18 H3          -0.4480     0.0070     3.5040 ha         1 1BZ       0.166000
     19 H5           1.1760    -0.7560    -2.0910 hc         1 1BZ       0.074200
     20 H6           2.8000    -0.3020    -1.4240 hc         1 1BZ       0.074200
     21 H8           2.9960     4.4720    -1.8800 ha         1 1BZ       0.133000
     22 H9           3.1330     2.2210    -0.8080 ha         1 1BZ       0.138500
     23 H10          0.0740     0.7650    -3.4970 ha         1 1BZ       0.138500
     24 H11         -0.0590     3.0090    -4.5630 ha         1 1BZ       0.133000
     25 H12         -2.5600    -1.4560     1.0640 hc         1 1BZ       0.054367
     26 H13         -2.8390     0.3300     0.9150 hc         1 1BZ       0.054367
     27 H14         -2.6290    -0.4220     2.5550 hc         1 1BZ       0.054367
     28 H15          3.6850     0.1690     1.6290 ho         1 1BZ       0.447000
     29 H7           1.3990     4.8680    -3.7580 ha         1 1BZ       0.132000
@<TRIPOS>BOND
     1     1     2 2   
     2     1     6 1   
     3     1    17 1   
     4     2     3 1   
     5     2     8 1   
     6     3     4 1   
     7     3    16 1   
     8     4     5 1   
     9     4     7 2   
    10     5     6 2   
    11     5    18 1   
    12     6    15 1   
    13     8    12 1   
    14     8    19 1   
    15     8    20 1   
    16     9    10 ar  
    17     9    14 ar  
    18     9    29 1   
    19    10    11 ar  
    20    10    21 1   
    21    11    12 ar  
    22    11    22 1   
    23    12    13 ar  
    24    13    14 ar  
    25    13    23 1   
    26    14    24 1   
    27    15    25 1   
    28    15    26 1   
    29    15    27 1   
    30    16    28 1   
@<TRIPOS>SUBSTRUCTURE
     1 1BZ         1 TEMP              0 ****  ****    0 ROOT
