@<TRIPOS>MOLECULE
1BZ
   29    30     1     0     0
SMALL
bcc


@<TRIPOS>ATOM
      1 C1           0.0000     0.0000     0.0000 cc         1 1BZ      -0.207000
      2 C2           1.3530     0.0000     0.0000 cd         1 1BZ      -0.107600
      3 N1           2.0460     0.0000     1.1680 n          1 1BZ       0.274500
      4 C3           1.4020     0.0010     2.3500 c          1 1BZ       0.569700
      5 C4          -0.0030     0.0010     2.3870 cd         1 1BZ      -0.251200
      6 C5          -0.7010     0.0000     1.2140 cc         1 1BZ      -0.003200
      7 O1           2.0390     0.0010     3.3920 o          1 1BZ      -0.707500
      8 C6           2.0980    -0.0010    -1.3090 c3         1 1BZ       0.090100
      9 C7           3.1070     4.0110    -2.3740 ca         1 1BZ      -0.097000
     10 C8           1.9080     3.4660    -2.7920 ca         1 1BZ      -0.098500
     11 C9           1.5810     2.1680    -2.4470 ca         1 1BZ      -0.089500
     12 C10          2.4540     1.4150    -1.6850 ca         1 1BZ      -0.102300
     13 C11          3.6540     1.9600    -1.2660 ca         1 1BZ      -0.089500
     14 C12          3.9840     3.2570    -1.6160 ca         1 1BZ      -0.098500
     15 C13         -2.2080     0.0070     1.2250 c3         1 1BZ       0.054100
     16 O2           3.4610    -0.0010     1.1420 oh         1 1BZ      -0.465100
     17 H1          -0.5420    -0.0000    -0.9380 ha         1 1BZ       0.129000
     18 H3          -0.5260     0.0020     3.3350 ha         1 1BZ       0.142000
     19 H5           1.4730    -0.4330    -2.0810 hc         1 1BZ       0.031700
     20 H6           3.0040    -0.5860    -1.2080 hc         1 1BZ       0.031700
     21 H8           1.2230     4.0570    -3.3880 ha         1 1BZ       0.104000
     22 H9           0.6410     1.7410    -2.7750 ha         1 1BZ       0.110000
     23 H10          4.3400     1.3680    -0.6720 ha         1 1BZ       0.110000
     24 H11          4.9240     3.6840    -1.2890 ha         1 1BZ       0.104000
     25 H12         -2.5660     1.0250     1.1280 hc         1 1BZ       0.013033
     26 H13         -2.5780    -0.5860     0.3970 hc         1 1BZ       0.013033
     27 H14         -2.5640    -0.4140     2.1580 hc         1 1BZ       0.013033
     28 H15          3.7850    -0.7180     1.6610 ho         1 1BZ       0.424000
     29 H7           3.3640     5.0280    -2.6470 ha         1 1BZ       0.103000
@<TRIPOS>BOND
     1     1     2 2   
     2     1     6 1   
     3     1    17 1   
     4     2     3 1   
     5     2     8 1   
     6     3     4 1   
     7     3    16 1   
     8     4     5 1   
     9     4     7 2   
    10     5     6 2   
    11     5    18 1   
    12     6    15 1   
    13     8    12 1   
    14     8    19 1   
    15     8    20 1   
    16     9    10 ar  
    17     9    14 ar  
    18     9    29 1   
    19    10    11 ar  
    20    10    21 1   
    21    11    12 ar  
    22    11    22 1   
    23    12    13 ar  
    24    13    14 ar  
    25    13    23 1   
    26    14    24 1   
    27    15    25 1   
    28    15    26 1   
    29    15    27 1   
    30    16    28 1   
@<TRIPOS>SUBSTRUCTURE
     1 1BZ         1 TEMP              0 ****  ****    0 ROOT
