@<TRIPOS>MOLECULE
molecule
   49    51     1     0     0
SMALL
bcc


@<TRIPOS>ATOM
      1 N01          0.0000     0.0000     0.0000 nz         1 1C1      -0.779600
      2 C02          1.3320     0.0000     0.0000 c2         1 1C1       0.459700
      3 N03          2.0150     0.0000     1.1850 nu         1 1C1      -0.291100
      4 C04          1.2820    -0.0010     2.4540 c3         1 1C1      -0.010700
      5 C05          2.2760    -0.0020     3.6170 c3         1 1C1      -0.114700
      6 C06          3.0710     1.3210     3.6610 c3         1 1C1      -0.032100
      7 C07          3.2790     1.6100     5.1310 ca         1 1C1      -0.116300
      8 C08          4.1680     2.4630     5.7620 ca         1 1C1      -0.097000
      9 C09          4.1780     2.5640     7.1390 ca         1 1C1      -0.091000
     10 C10          3.2960     1.8120     7.8920 ca         1 1C1      -0.096000
     11 C11          2.4080     0.9610     7.2660 ca         1 1C1      -0.072000
     12 C12          2.3970     0.8570     5.8850 ca         1 1C1      -0.125300
     13 C13          1.5360     0.0120     4.9710 c3         1 1C1       0.192000
     14 N14          1.4170    -1.3490     5.5000 ns         1 1C1      -0.578900
     15 C15          0.4240    -1.6560     6.3570 c          1 1C1       0.592100
     16 O16         -0.3740    -0.8040     6.6900 o          1 1C1      -0.583100
     17 C17          0.3030    -3.0440     6.8950 c          1 1C1       0.592100
     18 O18          1.1020    -3.8950     6.5620 o          1 1C1      -0.583100
     19 N19         -0.6900    -3.3500     7.7520 ns         1 1C1      -0.431100
     20 C20         -0.8610    -4.6690     8.1810 ca         1 1C1       0.047600
     21 C21          0.2450    -5.4840     8.3810 ca         1 1C1      -0.161000
     22 C22          0.0740    -6.7890     8.8060 ca         1 1C1       0.162900
     23 F23          1.1480    -7.5840     9.0010 f          1 1C1      -0.111900
     24 C24         -1.2030    -7.2820     9.0310 ca         1 1C1      -0.016600
     25 Cl1         -1.4170    -8.9200     9.5660 cl         1 1C1      -0.054400
     26 C26         -2.3050    -6.4710     8.8320 ca         1 1C1      -0.077000
     27 C27         -2.1380    -5.1650     8.4150 ca         1 1C1      -0.156000
     28 N28          1.9980     0.0020    -1.1530 nv         1 1C1      -0.408200
     29 H1          -0.3340    -0.0490    -0.9420 hn         1 1C1       0.517800
     30 H2          -0.3340    -0.7920     0.5130 hn         1 1C1       0.517800
     31 H3           3.0130    -0.0750     1.1850 hn         1 1C1       0.378700
     32 H4           0.6590     0.8830     2.5120 h1         1 1C1       0.089200
     33 H5           0.6590    -0.8860     2.5100 h1         1 1C1       0.089200
     34 H6           2.9480    -0.8490     3.5580 hc         1 1C1       0.097700
     35 H7           2.4810     2.1140     3.2150 hc         1 1C1       0.053200
     36 H8           4.0310     1.1840     3.1780 hc         1 1C1       0.053200
     37 H9           4.8600     3.0530     5.1730 ha         1 1C1       0.141000
     38 H10          4.8760     3.2330     7.6280 ha         1 1C1       0.161000
     39 H11          3.3020     1.8900     8.9730 ha         1 1C1       0.163000
     40 H12          1.7170     0.3720     7.8570 ha         1 1C1       0.154000
     41 H13          0.5570     0.4630     4.8570 h1         1 1C1       0.085700
     42 H14          2.0780    -2.0510     5.2280 hn         1 1C1       0.343500
     43 H15         -1.2960    -2.6310     8.0930 hn         1 1C1       0.353500
     44 H16          1.2430    -5.0820     8.2570 ha         1 1C1       0.176000
     45 H17         -3.3010    -6.8580     9.0120 ha         1 1C1       0.164000
     46 H18         -3.0020    -4.5310     8.2590 ha         1 1C1       0.143000
     47 H19          2.9990     0.0020    -1.1530 hn         1 1C1       0.370200
     48 H20          1.4980     0.0030    -2.0200 hn         1 1C1       0.370200
     49 H013        -0.3340     0.8400     0.4290 hn         1 1C1       0.517800
@<TRIPOS>BOND
     1    28     2 1
     2     2     3 2
     3     2     1 1
     4     3     4 1
     5     4     5 1
     6    27    26 ar
     7    27    20 ar
     8    26    24 ar
     9     5     6 1
    10     5    13 1
    11    16    15 2
    12    20    19 1
    13    20    21 ar
    14    19    17 1
    15    24    25 1
    16    24    22 ar
    17    15    17 1
    18    15    14 1
    19     6     7 1
    20    13    14 1
    21    13    12 1
    22    17    18 2
    23    21    22 ar
    24    22    23 1
    25     7    12 ar
    26     7     8 ar
    27    12    11 ar
    28     8     9 ar
    29    11    10 ar
    30     9    10 ar
    31     1    29 1
    32     1    30 1
    33     3    31 1
    34     4    32 1
    35     4    33 1
    36     5    34 1
    37     6    35 1
    38     6    36 1
    39     8    37 1
    40     9    38 1
    41    10    39 1
    42    11    40 1
    43    13    41 1
    44    14    42 1
    45    19    43 1
    46    21    44 1
    47    26    45 1
    48    27    46 1
    49    28    47 1
    50    28    48 1
    51    49     1 1
@<TRIPOS>SUBSTRUCTURE
     1 1C1         1 TEMP              0 ****  ****    0 ROOT
