@<TRIPOS>MOLECULE
1C2
   49    50     1     0     0
SMALL
bcc


@<TRIPOS>ATOM
      1 O6           0.7980     3.6810    -2.7850 o          1 1C2      -0.738200
      2 S1           1.0110     2.2580    -2.6130 s6         1 1C2       1.550700
      3 O4          -0.2190     1.5820    -2.5730 o          1 1C2      -0.738200
      4 O5           1.9940     1.7460    -3.4710 o          1 1C2      -0.738200
      5 N3           1.7130     2.1580    -1.0320 nu         1 1C2      -0.732500
      6 C15          1.2940     3.0470    -0.0700 ca         1 1C2       0.232600
      7 C16          2.1830     3.7630     0.7730 ca         1 1C2      -0.207000
      8 C14         -0.0910     3.3970    -0.0310 ca         1 1C2      -0.186000
      9 C13         -0.4700     4.5880     0.5520 ca         1 1C2      -0.109300
     10 C12         -1.8750     5.1080     0.4570 c3         1 1C2       0.129300
     11 N2          -1.8900     6.4400    -0.1390 n          1 1C2      -0.453800
     12 C7          -2.6610     6.6860    -1.2810 c          1 1C2       0.744100
     13 O3          -2.3490     7.5110    -2.1640 o          1 1C2      -0.626000
     14 O2          -3.7960     5.9430    -1.3470 os         1 1C2      -0.411900
     15 C8          -4.7080     6.1220    -2.4780 c3         1 1C2       0.184800
     16 C11         -5.8170     5.1240    -2.1510 c3         1 1C2      -0.118433
     17 C10         -4.0180     5.7490    -3.7760 c3         1 1C2      -0.118433
     18 C9          -5.2480     7.5400    -2.5030 c3         1 1C2      -0.118433
     19 C4          -0.7400     7.2830     0.0930 c3         1 1C2       0.059700
     20 C5           0.2850     7.3750    -1.0600 c          1 1C2       0.524100
     21 O1           1.0820     8.3010    -1.1610 o          1 1C2      -0.458100
     22 N1           0.3360     6.2970    -2.0910 ny         1 1C2      -0.651800
     23 C6           1.4370     6.4630    -3.0660 c3         1 1C2       0.095100
     24 C3           0.0650     6.8440     1.3490 c3         1 1C2      -0.019100
     25 C2           0.4870     5.4370     1.1430 ca         1 1C2      -0.204300
     26 C1           1.7800     4.9610     1.3530 ca         1 1C2      -0.071000
     27 HN3          2.5700     1.6930    -0.8640 hn         1 1C2       0.432800
     28 H16          3.2140     3.4070     0.9120 ha         1 1C2       0.144000
     29 H14         -0.8320     2.7470    -0.5330 ha         1 1C2       0.184000
     30 H121        -2.3130     5.1970     1.4940 h1         1 1C2       0.086200
     31 H122        -2.5280     4.4130    -0.1430 h1         1 1C2       0.086200
     32 H111        -5.4030     4.0890    -2.0990 hc         1 1C2       0.058256
     33 H112        -6.5910     5.1730    -2.9530 hc         1 1C2       0.058256
     34 H113        -6.2850     5.3740    -1.1700 hc         1 1C2       0.058256
     35 H101        -4.7760     5.6960    -4.5940 hc         1 1C2       0.058256
     36 H102        -3.5220     4.7530    -3.6800 hc         1 1C2       0.058256
     37 H103        -3.2500     6.5130    -4.0480 hc         1 1C2       0.058256
     38 H91         -6.0660     7.6070    -3.2600 hc         1 1C2       0.058256
     39 H92         -4.4430     8.2640    -2.7760 hc         1 1C2       0.058256
     40 H93         -5.6570     7.8140    -1.5020 hc         1 1C2       0.058256
     41 H4          -1.1100     8.3460     0.2250 h1         1 1C2       0.117700
     42 HN1          0.4400     5.3510    -1.6460 hn         1 1C2       0.495800
     43 H61          1.4640     5.5370    -3.7130 hx         1 1C2       0.105033
     44 H62          2.4080     6.5600    -2.5140 hx         1 1C2       0.105033
     45 H63          1.2610     7.3840    -3.6780 hx         1 1C2       0.105033
     46 H31          0.9410     7.5320     1.4700 hc         1 1C2       0.081200
     47 H32         -0.5920     6.9480     2.2520 hc         1 1C2       0.081200
     48 H1           2.5010     5.5610     1.9290 ha         1 1C2       0.136000
     49 H12         -0.5570     6.2900    -2.6070 hn         1 1C2       0.495800
@<TRIPOS>BOND
     1     1     2 1   
     2     2     3 1   
     3     2     4 1   
     4     2     5 1   
     5     5     6 1   
     6     5    27 1   
     7     6     7 ar  
     8     6     8 ar  
     9     7    26 ar  
    10     7    28 1   
    11     8     9 ar  
    12     8    29 1   
    13     9    10 1   
    14     9    25 ar  
    15    10    11 1   
    16    10    30 1   
    17    10    31 1   
    18    11    12 1   
    19    11    19 1   
    20    12    13 2   
    21    12    14 1   
    22    14    15 1   
    23    15    16 1   
    24    15    17 1   
    25    15    18 1   
    26    16    32 1   
    27    16    33 1   
    28    16    34 1   
    29    17    35 1   
    30    17    36 1   
    31    17    37 1   
    32    18    38 1   
    33    18    39 1   
    34    18    40 1   
    35    19    20 1   
    36    19    24 1   
    37    19    41 1   
    38    20    21 2   
    39    20    22 1   
    40    22    23 1   
    41    22    42 1   
    42    22    49 1   
    43    23    43 1   
    44    23    44 1   
    45    23    45 1   
    46    24    25 1   
    47    24    46 1   
    48    24    47 1   
    49    25    26 ar  
    50    26    48 1   
@<TRIPOS>SUBSTRUCTURE
     1 1C2         1 TEMP              0 ****  ****    0 ROOT
