@<TRIPOS>MOLECULE
1C2
   48    49     1     0     0
SMALL
bcc


@<TRIPOS>ATOM
      1 O6           0.0000     0.0000     0.0000 o          1 1C2      -0.644200
      2 S1           1.4700     0.0000     0.0000 s6         1 1C2       1.075700
      3 O4           1.9720     0.0000     1.3730 o          1 1C2      -0.644200
      4 O5           2.0720    -1.0170    -0.8950 o          1 1C2      -0.644200
      5 N3           1.8920     1.4130    -0.6810 nu         1 1C2      -0.482500
      6 C15          1.3990     2.6090    -0.2280 ca         1 1C2       0.151600
      7 C16          2.0730     3.3120     0.7740 ca         1 1C2      -0.100000
      8 C14          0.2460     3.1720    -0.7860 ca         1 1C2      -0.095000
      9 C13         -0.2610     4.4050    -0.3590 ca         1 1C2      -0.126300
     10 C12         -1.5140     4.9960    -0.9750 c3         1 1C2       0.127300
     11 N2          -1.6280     6.4580    -0.8020 n          1 1C2      -0.114800
     12 C7          -2.6970     7.1000    -1.2640 c          1 1C2       0.703100
     13 O3          -2.9190     8.3010    -1.1850 o          1 1C2      -0.645000
     14 O2          -3.6320     6.2150    -1.9090 os         1 1C2      -0.485900
     15 C8          -4.8260     6.5300    -2.6420 c3         1 1C2       0.211800
     16 C11         -5.5600     5.2120    -2.8730 c3         1 1C2      -0.023767
     17 C10         -4.4720     7.1940    -3.9670 c3         1 1C2      -0.023767
     18 C9          -5.6930     7.4100    -1.7570 c3         1 1C2      -0.023767
     19 C4          -0.5860     7.2120    -0.1160 c3         1 1C2      -0.053300
     20 C5           0.5120     7.6180    -1.0570 c          1 1C2       0.580100
     21 O1           1.5310     8.1370    -0.6410 o          1 1C2      -0.655100
     22 N1           0.3270     7.3960    -2.3530 ns         1 1C2      -0.178900
     23 C6           1.3530     7.7690    -3.3200 c3         1 1C2       0.082300
     24 C3          -0.1290     6.4060     1.1040 c3         1 1C2       0.049900
     25 C2           0.4110     5.0750     0.6420 ca         1 1C2      -0.128300
     26 C1           1.5680     4.5450     1.2150 ca         1 1C2      -0.091000
     27 HN3          2.5300     1.4110    -1.4530 hn         1 1C2       0.323800
     28 H16          3.0400     2.9670     1.1210 ha         1 1C2       0.116000
     29 H14         -0.2710     2.6360    -1.5740 ha         1 1C2       0.115000
     30 H121        -2.3770     4.5260    -0.5160 h1         1 1C2       0.028700
     31 H122        -1.5150     4.7730    -2.0350 h1         1 1C2       0.028700
     32 H111        -5.7910     4.7540    -1.9190 hc         1 1C2       0.014589
     33 H112        -4.9320     4.5440    -3.4500 hc         1 1C2       0.014589
     34 H113        -6.4790     5.4000    -3.4150 hc         1 1C2       0.014589
     35 H101        -5.3760     7.3620    -4.5390 hc         1 1C2       0.014589
     36 H102        -3.9830     8.1420    -3.7780 hc         1 1C2       0.014589
     37 H103        -3.8050     6.5490    -4.5270 hc         1 1C2       0.014589
     38 H91         -5.6590     7.0420    -0.7380 hc         1 1C2       0.014589
     39 H92         -6.7150     7.3870    -2.1150 hc         1 1C2       0.014589
     40 H93         -5.3230     8.4280    -1.7860 hc         1 1C2       0.014589
     41 H4          -1.0430     8.1200     0.2570 h1         1 1C2       0.066700
     42 HN1         -0.5230     6.9730    -2.6690 hn         1 1C2       0.178500
     43 H61          1.0400     7.4700    -4.3130 h1         1 1C2       0.007367
     44 H62          1.5000     8.8420    -3.2960 h1         1 1C2       0.007367
     45 H63          2.2830     7.2720    -3.0700 h1         1 1C2       0.007367
     46 H31          0.6620     6.9500     1.6070 hc         1 1C2       0.034200
     47 H32         -0.9820     6.2330     1.7490 hc         1 1C2       0.034200
     48 H1           2.0870     5.0940     1.9920 ha         1 1C2       0.097000
@<TRIPOS>BOND
     1     1     2 1   
     2     2     3 1   
     3     2     4 1   
     4     2     5 1   
     5     5     6 1   
     6     5    27 1   
     7     6     7 ar  
     8     6     8 ar  
     9     7    26 ar  
    10     7    28 1   
    11     8     9 ar  
    12     8    29 1   
    13     9    10 1   
    14     9    25 ar  
    15    10    11 1   
    16    10    30 1   
    17    10    31 1   
    18    11    12 1   
    19    11    19 1   
    20    12    13 2   
    21    12    14 1   
    22    14    15 1   
    23    15    16 1   
    24    15    17 1   
    25    15    18 1   
    26    16    32 1   
    27    16    33 1   
    28    16    34 1   
    29    17    35 1   
    30    17    36 1   
    31    17    37 1   
    32    18    38 1   
    33    18    39 1   
    34    18    40 1   
    35    19    20 1   
    36    19    24 1   
    37    19    41 1   
    38    20    21 2   
    39    20    22 1   
    40    22    23 1   
    41    22    42 1   
    42    23    43 1   
    43    23    44 1   
    44    23    45 1   
    45    24    25 1   
    46    24    46 1   
    47    24    47 1   
    48    25    26 ar  
    49    26    48 1   
@<TRIPOS>SUBSTRUCTURE
     1 1C2         1 TEMP              0 ****  ****    0 ROOT
