@<TRIPOS>MOLECULE
1C5
   81    78     1     0     0
SMALL
bcc


@<TRIPOS>ATOM
      1 C1          1.5940   -2.1830    5.1980 c2        1 1C5     -0.214000
      2 C2          3.0000   -2.2460    5.6680 c3        1 1C5      0.031000
      3 C3          6.9220    2.0660    1.5440 c3        1 1C5     -0.189000
      4 C4          6.5070    3.5140    1.4240 c3        1 1C5     -0.209000
      5 C5         -0.4690   -3.2440    4.3220 c3        1 1C5     -0.199000
      6 C6          0.9430   -3.2600    4.7480 c2        1 1C5     -0.111000
      7 C7          5.5960    3.9200    2.4720 c1        1 1C5     -0.141000
      8 C8          4.6180    4.9680    2.2540 c3        1 1C5     -0.117000
      9 C9          3.7500    5.2240    3.4440 c2        1 1C5     -0.481000
     10 C10         2.5790    5.9490    3.2350 c2        1 1C5      0.289000
     11 C12         4.0380    2.3670    5.7490 c2        1 1C5      0.048000
     12 C13         4.6240    1.5120    4.6710 c3        1 1C5     -0.111000
     13 C14         5.5060    0.4180    5.1410 c2        1 1C5     -0.371000
     14 C15         4.9220   -0.8320    5.6150 c2        1 1C5      0.391000
     15 C17         6.0740   -1.2660   10.1630 c2        1 1C5      0.058000
     16 C18         6.0670   -0.6430   11.5290 c3        1 1C5     -0.134000
     17 C19         7.4600   -0.5600   12.0530 c2        1 1C5     -0.150000
     18 C20         8.2250    0.5380   11.8410 c2        1 1C5     -0.080000
     19 C21         9.5730    0.6490   12.3350 c2        1 1C5     -0.094000
     20 C22        10.1090   -0.3890   13.0280 c2        1 1C5      0.038000
     21 C23         9.3280   -1.6090   13.2970 c2        1 1C5      0.277000
     22 C24         7.9250   -1.7270   12.8470 c3        1 1C5     -0.155000
     23 C26         8.4080    4.0700   10.6180 c3        1 1C5     -0.274000
     24 N1          1.6550    6.1990    4.4290 n4        1 1C5     -0.146000
     25 N2          4.1520    4.6670    4.7060 n4        1 1C5     -0.018000
     26 N3          4.1470    2.1600    7.0260 n3        1 1C5     -0.171000
     27 N4          5.9870   -0.6200    9.0400 n3        1 1C5     -0.151000
     28 O1          2.1350    6.4580    2.1930 o         1 1C5     -0.341000
     29 O3          3.6050   -0.9780    5.3050 os        1 1C5     -0.267000
     30 O4          5.4840   -1.7260    6.2670 o         1 1C5     -0.409000
     31 O6          6.1330    1.6490    9.5510 o         1 1C5     -0.332000
     32 O4P        11.3510   -0.4500   13.5400 os        1 1C5     -0.601000
     33 O1P         9.9560   -2.5090   13.9370 os        1 1C5     -0.420000
     34 O2P        12.3600   -2.7380   13.1960 o         1 1C5     -0.667000
     35 O3P        11.7250   -1.7870   15.6700 o         1 1C5     -0.667000
     36 P          11.7320   -1.9470   14.2330 p5        1 1C5      1.814000
     37 H11        -0.5480   -3.5820    3.2570 hc        1 1C5      0.093667
     38 H12A        1.1170   -1.1920    5.2590 ha        1 1C5      0.137000
     39 H21A        3.5900   -3.0700    5.1880 h1        1 1C5      0.100500
     40 H22         7.7370    1.8410    0.8140 hc        1 1C5      0.079333
     41 H31         7.2930    1.8430    2.5740 hc        1 1C5      0.079333
     42 H32         3.0560   -2.3490    6.7850 h1        1 1C5      0.100500
     43 H4          6.0580    1.3930    1.3250 hc        1 1C5      0.079333
     44 H51         6.1270    3.7120    0.3820 hc        1 1C5      0.124500
     45 H52        -0.9220   -2.2260    4.4050 hc        1 1C5      0.093667
     46 H61        -1.0660   -3.9500    4.9540 hc        1 1C5      0.093667
     47 H62         1.4440   -4.2420    4.6800 ha        1 1C5      0.128000
     48 H71         7.4210    4.1730    1.5590 hc        1 1C5      0.124500
     49 H72         0.6870    5.2220    7.2950 ha        1 1C5      0.002000
     50 H81         0.6440    5.8340    7.0060 ha        1 1C5      0.002000
     51 H82         5.1450    5.9280    1.9630 hc        1 1C5      0.141500
     52 H9          3.9540    4.7190    1.3700 hc        1 1C5      0.141500
     53 H12         2.6390    3.1720    4.2870 hx        1 1C5      0.105000
     54 H131        2.4330    3.8110    9.0020 ha        1 1C5      0.002000
     55 H132        2.1030    4.1080    8.4890 ha        1 1C5      0.002000
     56 H141        5.1630    2.1840    3.9290 hc        1 1C5      0.174000
     57 H142        3.7490    1.0550    4.1140 hc        1 1C5      0.174000
     58 H17         6.1480   -2.3790   10.1590 h4        1 1C5      0.158000
     59 H181        5.4330   -1.2840   12.2010 hc        1 1C5      0.137500
     60 H182        5.6110    0.3880   11.5070 hc        1 1C5      0.137500
     61 H20         7.8320    1.3980   11.2620 ha        1 1C5      0.179000
     62 H21        10.1490    1.5670   12.1400 ha        1 1C5      0.185000
     63 H23         7.8140   -2.6810   12.2530 hc        1 1C5      0.166000
     64 H24         7.2740   -1.8470   13.7660 hc        1 1C5      0.166000
     65 H261        8.9760    4.5310    9.7810 hc        1 1C5      0.068750
     66 H262        7.5760    3.4530   10.2120 hc        1 1C5      0.068750
     67 H263        7.9950    4.8710   11.2700 hc        1 1C5      0.068750
     68 HN11        0.8260    6.6990    4.0990 hn        1 1C5      0.246000
     69 HN12        1.3730    5.3100    4.8720 hn        1 1C5      0.246000
     70 HN2         4.1990    5.4000    5.4170 hn        1 1C5      0.217000
     71 HN3         4.7160    1.3960    7.4940 hn        1 1C5      0.299500
     72 HN4         9.0910    3.4260   11.2150 hc        1 1C5      0.068750
     73 C11         3.1460    3.5600    5.2210 c3        1 1C5      0.196000
     74 C16         6.8340    0.5340    5.0460 c1        1 1C5      0.371000
     75 O2          2.4020    4.1030    6.1360 o         1 1C5     -0.616000
     76 C25         5.6650    0.8140    8.7940 c1        1 1C5     -0.046000
     77 O5          8.0010    0.6580    4.9490 o         1 1C5     -0.051000
     78 H13         2.1260    6.7580    5.1370 hn        1 1C5      0.246000
     79 H221        5.0900    4.2700    4.5680 hn        1 1C5      0.217000
     80 H321        3.6610    2.7940    7.6490 hn        1 1C5      0.299500
     81 H42         6.0020   -1.1570    8.1820 hn        1 1C5      0.267000
@<TRIPOS>BOND
     1    1    2 1
     2    1    6 1
     3    1   38 1
     4    2   29 1
     5    2   39 1
     6    2   42 1
     7    3    4 1
     8    3   40 1
     9    3   41 1
    10    3   43 1
    11    4    7 1
    12    4   44 1
    13    4   48 1
    14    5    6 1
    15    5   37 1
    16    5   45 1
    17    5   46 1
    18    6   47 1
    19    7    8 1
    20    8    9 1
    21    8   51 1
    22    8   52 1
    23    9   10 1
    24    9   25 1
    25   10   24 1
    26   10   28 1
    27   11   12 1
    28   11   26 1
    29   11   73 1
    30   12   13 1
    31   12   56 1
    32   12   57 1
    33   13   14 1
    34   13   74 1
    35   14   29 1
    36   14   30 1
    37   15   16 1
    38   15   27 1
    39   15   58 1
    40   16   17 1
    41   16   59 1
    42   16   60 1
    43   17   18 1
    44   17   22 1
    45   18   19 1
    46   18   61 1
    47   19   20 1
    48   19   62 1
    49   20   21 1
    50   20   32 1
    51   21   22 1
    52   21   33 1
    53   22   63 1
    54   22   64 1
    55   23   65 1
    56   23   66 1
    57   23   67 1
    58   23   72 1
    59   24   68 1
    60   24   69 1
    61   24   78 1
    62   25   70 1
    63   25   73 1
    64   25   79 1
    65   26   71 1
    66   26   80 1
    67   27   76 1
    68   27   81 1
    69   31   76 1
    70   32   36 1
    71   33   36 1
    72   34   36 1
    73   35   36 1
    74   49   50 1
    75   53   73 1
    76   54   55 1
    77   73   75 1
    78   74   77 1
@<TRIPOS>SUBSTRUCTURE
     1 1C5         1 TEMP              0 ****  ****    0 ROOT
