@<TRIPOS>MOLECULE
1C6
   42    44     1     0     0
SMALL
bcc


@<TRIPOS>ATOM
      1 S           0.3240    0.1810   -0.1660 ss        1 1C6     -0.122300
      2 CB          2.1010    0.1850   -0.0700 c3        1 1C6     -0.062600
      3 CG          2.4360    0.0750    1.3820 ca        1 1C6      0.395600
      4 CD1         2.6550   -1.2020    1.9570 ca        1 1C6     -0.165600
      5 C3          2.5350   -2.4420    1.1610 c3        1 1C6     -0.060800
      6 CE1         2.9820   -1.2510    3.3280 ca        1 1C6      0.116100
      7 O2          3.0920   -2.4880    3.9520 os        1 1C6     -0.342900
      8 C2          4.4430   -2.9150    4.1340 c3        1 1C6      0.115700
      9 CZ          3.0890   -0.0690    4.0780 ca        1 1C6     -0.191600
     10 C1          3.4300   -0.0680    5.5150 c3        1 1C6     -0.052800
     11 CE2         2.8500    1.1430    3.3940 ca        1 1C6      0.397200
     12 N1          2.5370    1.2280    2.0960 nb        1 1C6     -0.649000
     13 CF1         0.0280    0.1170   -1.8370 cc        1 1C6      0.397700
     14 NV         -1.2980    0.1640   -2.3300 na        1 1C6     -0.271300
     15 CX2        -1.2090    0.0980   -3.7220 ca        1 1C6     -0.035200
     16 CS2         0.2110    0.0000   -4.0260 ca        1 1C6      0.046400
     17 NE1         0.9450    0.0150   -2.8250 nd        1 1C6     -0.583100
     18 CE3        -2.1790    0.1060   -4.7240 ca        1 1C6     -0.172000
     19 CZ3        -1.7160    0.0160   -6.0430 ca        1 1C6      0.139100
     20 O3         -2.7210    0.0280   -6.9940 os        1 1C6     -0.329900
     21 C4         -2.3090   -0.0450   -8.3530 c3        1 1C6      0.114700
     22 CH2        -0.3430   -0.0800   -6.3580 ca        1 1C6     -0.217000
     23 CZ2         0.6210   -0.0880   -5.3610 ca        1 1C6     -0.041000
     24 H1          2.5050    1.1270   -0.5210 h1        1 1C6      0.100200
     25 H2          2.5340   -0.6730   -0.6420 h1        1 1C6      0.100200
     26 H3          2.6110   -3.3450    1.8170 hc        1 1C6      0.058033
     27 H4          1.5490   -2.4710    0.6310 hc        1 1C6      0.058033
     28 H5          3.3500   -2.4930    0.3950 hc        1 1C6      0.058033
     29 H6          4.3410   -3.8900    4.6730 h1        1 1C6      0.043367
     30 H7          5.0050   -2.1740    4.7520 h1        1 1C6      0.043367
     31 H8          4.9390   -3.0570    3.1440 h1        1 1C6      0.043367
     32 H9          4.5290    0.1010    5.6490 hc        1 1C6      0.052367
     33 H10         3.1640   -1.0470    5.9850 hc        1 1C6      0.052367
     34 H11         2.8830    0.7470    6.0500 hc        1 1C6      0.052367
     35 H12         2.9130    2.1060    3.9340 h4        1 1C6      0.027100
     36 H13        -2.1160    0.2780   -1.7940 hn        1 1C6      0.313700
     37 H15        -3.2520    0.1790   -4.5100 ha        1 1C6      0.154000
     38 H16        -1.6670    0.8290   -8.6190 h1        1 1C6      0.044367
     39 H17        -1.7710   -1.0030   -8.5520 h1        1 1C6      0.044367
     40 H18        -3.2750   -0.0110   -8.9180 h1        1 1C6      0.044367
     41 H19        -0.0240   -0.1490   -7.4080 ha        1 1C6      0.138000
     42 H20         1.6890   -0.1630   -5.6110 ha        1 1C6      0.147000
@<TRIPOS>BOND
     1    1    2 1   
     2    1   13 1   
     3    2    3 1   
     4    2   24 1   
     5    2   25 1   
     6    3    4 ar  
     7    3   12 ar  
     8    4    5 1   
     9    4    6 ar  
    10    5   26 1   
    11    5   27 1   
    12    5   28 1   
    13    6    7 1   
    14    6    9 ar  
    15    7    8 1   
    16    8   29 1   
    17    8   30 1   
    18    8   31 1   
    19    9   10 1   
    20    9   11 ar  
    21   10   32 1   
    22   10   33 1   
    23   10   34 1   
    24   11   12 ar  
    25   11   35 1   
    26   13   14 1   
    27   13   17 2   
    28   14   15 1   
    29   14   36 1   
    30   15   16 ar  
    31   15   18 ar  
    32   16   17 1   
    33   16   23 ar  
    34   18   19 ar  
    35   18   37 1   
    36   19   20 1   
    37   19   22 ar  
    38   20   21 1   
    39   21   38 1   
    40   21   39 1   
    41   21   40 1   
    42   22   23 ar  
    43   22   41 1   
    44   23   42 1   
@<TRIPOS>SUBSTRUCTURE
     1 1C6         1 TEMP              0 ****  ****    0 ROOT
