@<TRIPOS>MOLECULE
1C6
   42    44     1     0     0
SMALL
bcc


@<TRIPOS>ATOM
      1 S            0.9050    -0.0750    -0.3340 ss         1 1C6      -0.129300
      2 CB           2.6190     0.4000    -0.2550 c3         1 1C6      -0.060600
      3 CG           3.0120     0.2790     1.1830 ca         1 1C6       0.395600
      4 CD1          2.9050     1.4060     2.0350 ca         1 1C6      -0.165600
      5 C3           2.3980     2.7060     1.5460 c3         1 1C6      -0.058800
      6 CE1          3.3140     1.2500     3.3760 ca         1 1C6       0.116100
      7 O2           3.3290     2.3630     4.2070 os         1 1C6      -0.341900
      8 C2           2.2260     2.4140     5.1130 c3         1 1C6       0.115700
      9 CZ           3.8000     0.0150     3.8330 ca         1 1C6      -0.192600
     10 C1           4.2430    -0.2010     5.2250 c3         1 1C6      -0.052800
     11 CE2          3.8560    -1.0360     2.8900 ca         1 1C6       0.397200
     12 N1           3.4790    -0.9230     1.6110 nb         1 1C6      -0.649000
     13 CF1          0.4790     0.2780    -1.9410 cc         1 1C6       0.398700
     14 NV          -0.8130    -0.0400    -2.4230 na         1 1C6      -0.272300
     15 CX2         -0.8500     0.3620    -3.7600 ca         1 1C6      -0.035200
     16 CS2          0.4570     0.9390    -4.0380 ca         1 1C6       0.046400
     17 NE1          1.2530     0.8680    -2.8790 nd         1 1C6      -0.581100
     18 CE3         -1.8500     0.2990    -4.7310 ca         1 1C6      -0.172000
     19 CZ3         -1.5310     0.8190    -5.9920 ca         1 1C6       0.139100
     20 O3          -2.5600     0.7300    -6.9130 os         1 1C6      -0.329900
     21 C4          -2.2870     1.2270    -8.2170 c3         1 1C6       0.114700
     22 CH2         -0.2700     1.3830    -6.2810 ca         1 1C6      -0.217000
     23 CZ2          0.7240     1.4460    -5.3150 ca         1 1C6      -0.040000
     24 H1           3.2300    -0.2700    -0.9120 h1         1 1C6       0.101200
     25 H2           2.7620     1.4480    -0.6160 h1         1 1C6       0.101200
     26 H3           3.1440     3.1750     0.8550 hc         1 1C6       0.057367
     27 H4           1.4370     2.5680     0.9890 hc         1 1C6       0.057367
     28 H5           2.2210     3.4100     2.3970 hc         1 1C6       0.057367
     29 H6           1.2660     2.5030     4.5480 h1         1 1C6       0.043367
     30 H7           2.2130     1.5060     5.7640 h1         1 1C6       0.043367
     31 H8           2.4210     3.3360     5.7150 h1         1 1C6       0.043367
     32 H9           3.4100    -0.6390     5.8310 hc         1 1C6       0.052367
     33 H10          4.5520     0.7660     5.6950 hc         1 1C6       0.052367
     34 H11          5.1090    -0.9070     5.2590 hc         1 1C6       0.052367
     35 H12          4.2350    -2.0310     3.1910 h4         1 1C6       0.027100
     36 H13         -1.5180    -0.5190    -1.9310 hn         1 1C6       0.312700
     37 H15         -2.8390    -0.1320    -4.5360 ha         1 1C6       0.153000
     38 H16         -1.4450     0.6640    -8.6870 h1         1 1C6       0.044367
     39 H17         -3.2430     1.0400    -8.7700 h1         1 1C6       0.044367
     40 H18         -2.0590     2.3200    -8.1840 h1         1 1C6       0.044367
     41 H19         -0.0620     1.7800    -7.2850 ha         1 1C6       0.138000
     42 H20          1.7050     1.8860    -5.5440 ha         1 1C6       0.148000
@<TRIPOS>BOND
     1     1     2 1   
     2     1    13 1   
     3     2     3 1   
     4     2    24 1   
     5     2    25 1   
     6     3     4 ar  
     7     3    12 ar  
     8     4     5 1   
     9     4     6 ar  
    10     5    26 1   
    11     5    27 1   
    12     5    28 1   
    13     6     7 1   
    14     6     9 ar  
    15     7     8 1   
    16     8    29 1   
    17     8    30 1   
    18     8    31 1   
    19     9    10 1   
    20     9    11 ar  
    21    10    32 1   
    22    10    33 1   
    23    10    34 1   
    24    11    12 ar  
    25    11    35 1   
    26    13    14 1   
    27    13    17 2   
    28    14    15 1   
    29    14    36 1   
    30    15    16 ar  
    31    15    18 ar  
    32    16    17 1   
    33    16    23 ar  
    34    18    19 ar  
    35    18    37 1   
    36    19    20 1   
    37    19    22 ar  
    38    20    21 1   
    39    21    38 1   
    40    21    39 1   
    41    21    40 1   
    42    22    23 ar  
    43    22    41 1   
    44    23    42 1   
@<TRIPOS>SUBSTRUCTURE
     1 1C6         1 TEMP              0 ****  ****    0 ROOT
