@<TRIPOS>MOLECULE
molecule
   42    44     1     0     0
SMALL
bcc


@<TRIPOS>ATOM
      1 S            0.0000     0.0000     0.0000 ss         1 1C6      -0.167300
      2 CB           1.8100     0.0000     0.0000 c3         1 1C6      -0.034600
      3 CG           2.3130     0.0000     1.4210 ca         1 1C6       0.422600
      4 CD1          2.5410    -1.2000     2.0630 ca         1 1C6      -0.199600
      5 C3           2.2900    -2.5060     1.3530 c3         1 1C6      -0.052800
      6 CE1          3.0050    -1.1880     3.3750 ca         1 1C6       0.138100
      7 O2           3.2410    -2.3470     4.0410 os         1 1C6      -0.349900
      8 C2           4.5540    -2.9010     3.9330 c3         1 1C6       0.137700
      9 CZ           3.2220     0.0440     3.9880 ca         1 1C6      -0.215600
     10 C1           3.7240     0.1130     5.4070 c3         1 1C6      -0.042800
     11 CE2          2.9700     1.2000     3.2780 ca         1 1C6       0.424200
     12 N1           2.5340     1.1480     2.0340 nb         1 1C6      -0.676000
     13 CF1         -0.3060     0.0000    -1.7350 cc         1 1C6       0.436700
     14 NV          -1.5440     0.0060    -2.3150 na         1 1C6      -0.250300
     15 CX2         -1.3550     0.0100    -3.6870 ca         1 1C6      -0.051200
     16 CS2          0.0340     0.0070    -3.8910 ca         1 1C6       0.066400
     17 NE1          0.6190     0.0020    -2.6630 nd         1 1C6      -0.614100
     18 CE3         -2.2160     0.0160    -4.7740 ca         1 1C6      -0.171000
     19 CZ3         -1.7000     0.0210    -6.0590 ca         1 1C6       0.154100
     20 O3          -2.5440     0.0280    -7.1260 os         1 1C6      -0.328900
     21 C4          -1.9470     0.0320    -8.4250 c3         1 1C6       0.129700
     22 CH2         -0.3250     0.0180    -6.2640 ca         1 1C6      -0.226000
     23 CZ2          0.5400     0.0110    -5.1930 ca         1 1C6      -0.036000
     24 H1           2.1710    -0.8840    -0.5110 h1         1 1C6       0.096200
     25 H2           2.1710     0.8850    -0.5110 h1         1 1C6       0.096200
     26 H3           2.2070    -3.3030     2.0830 hc         1 1C6       0.054700
     27 H4           1.3690    -2.4380     0.7870 hc         1 1C6       0.054700
     28 H5           3.1130    -2.7150     0.6810 hc         1 1C6       0.054700
     29 H6           5.0130    -2.9350     4.9140 h1         1 1C6       0.039033
     30 H7           5.1530    -2.2830     3.2750 h1         1 1C6       0.039033
     31 H8           4.4910    -3.9040     3.5290 h1         1 1C6       0.039033
     32 H9           3.4950     1.0870     5.8240 hc         1 1C6       0.049367
     33 H10          3.2430    -0.6560     5.9990 hc         1 1C6       0.049367
     34 H11          4.7970    -0.0410     5.4180 hc         1 1C6       0.049367
     35 H12          3.1370     2.1620     3.7460 h4         1 1C6       0.029100
     36 H13         -2.4150     0.1390    -1.8400 hn         1 1C6       0.310700
     37 H15         -3.2850    -0.0690    -4.6200 ha         1 1C6       0.143000
     38 H16         -1.3290     0.9150    -8.5360 h1         1 1C6       0.041700
     39 H17         -2.7240     0.0370    -9.1790 h1         1 1C6       0.041700
     40 H18         -1.3340    -0.8540    -8.5430 h1         1 1C6       0.041700
     41 H19          0.0690     0.0220    -7.2730 ha         1 1C6       0.139000
     42 H20          1.6100     0.0080    -5.3600 ha         1 1C6       0.143000
@<TRIPOS>BOND
     1    21    20 1   
     2    20    19 1   
     3    19    18 ar  
     4    19    22 ar  
     5    18    15 ar  
     6    22    23 ar  
     7    15    14 1   
     8    15    16 ar  
     9    14    13 1   
    10    23    16 ar  
    11    16    17 1   
    12    13    17 2   
    13    13     1 1   
    14     1     2 1   
    15     2     3 1   
    16    12     3 ar  
    17    12    11 ar  
    18     3     4 ar  
    19    11     9 ar  
    20     4     5 1   
    21     4     6 ar  
    22     9    10 1   
    23     9     6 ar  
    24     6     7 1   
    25     7     8 1   
    26     2    24 1   
    27     2    25 1   
    28     5    26 1   
    29     5    27 1   
    30     5    28 1   
    31     8    29 1   
    32     8    30 1   
    33     8    31 1   
    34    10    32 1   
    35    10    33 1   
    36    10    34 1   
    37    11    35 1   
    38    14    36 1   
    39    18    37 1   
    40    21    38 1   
    41    21    39 1   
    42    21    40 1   
    43    22    41 1   
    44    23    42 1   
@<TRIPOS>SUBSTRUCTURE
     1 1C6         1 TEMP              0 ****  ****    0 ROOT
