@<TRIPOS>MOLECULE
molecule
   56    60     1     0     0
SMALL
bcc


@<TRIPOS>ATOM
      1 O18          0.0000     0.0000     0.0000 o          1 1C7      -0.610500
      2 C8           1.2130     0.0000     0.0000 c          1 1C7       0.710500
      3 N7           1.8950     0.0000     1.1670 n          1 1C7      -0.367000
      4 C19          1.1900     0.1280     2.4450 c3         1 1C7       0.090300
      5 C2           3.2890    -0.1260     1.1270 ca         1 1C7      -0.227000
      6 C9           1.9740    -0.0060    -1.3020 c3         1 1C7       0.107500
      7 C16          2.3720     1.4270    -1.6620 c3         1 1C7      -0.120400
      8 C17          1.1120     2.2710    -1.8640 c3         1 1C7      -0.093100
      9 N10          3.1810    -0.8290    -1.1800 nh         1 1C7      -0.677300
     10 C11          4.0010    -0.7430    -2.3950 c3         1 1C7       0.179500
     11 C15          5.0800    -1.8400    -2.3820 c3         1 1C7      -0.075900
     12 C14          4.8260    -2.7240    -3.6200 c3         1 1C7      -0.085400
     13 C13          4.0500    -1.8010    -4.5930 c3         1 1C7      -0.085400
     14 C12          3.1280    -0.9990    -3.6410 c3         1 1C7      -0.075900
     15 C3           3.9230    -0.5110    -0.0590 ca         1 1C7       0.651200
     16 N4           5.2490    -0.5970    -0.0780 nb         1 1C7      -0.774000
     17 C5           5.9530    -0.3390     1.0130 ca         1 1C7       0.782500
     18 N6           5.3800     0.0110     2.1530 nb         1 1C7      -0.742000
     19 C1           4.0620     0.1270     2.2460 ca         1 1C7       0.460200
     20 N20          7.3430    -0.4400     0.9580 na         1 1C7      -0.203700
     21 C24          8.1020    -0.6680    -0.1620 cc         1 1C7      -0.245600
     22 C23          9.3910    -0.6910     0.2340 cd         1 1C7       0.314200
     23 N22          9.4330    -0.4860     1.5560 nd         1 1C7      -0.675000
     24 C21          8.2100    -0.3270     2.0110 cc         1 1C7       0.492000
     25 C25          7.8360    -0.0710     3.4180 ca         1 1C7      -0.110500
     26 C30          6.8700    -0.8640     4.0410 ca         1 1C7      -0.075000
     27 C29          6.5250    -0.6200     5.3530 ca         1 1C7      -0.143500
     28 C28          7.1340     0.4070     6.0540 ca         1 1C7      -0.116000
     29 C27          8.0910     1.1950     5.4420 ca         1 1C7      -0.143500
     30 C26          8.4500     0.9590     4.1300 ca         1 1C7      -0.075000
     31 H1           0.1220     0.0550     2.2770 h1         1 1C7       0.055700
     32 H2           1.4210     1.0880     2.8900 h1         1 1C7       0.055700
     33 H3           1.5060    -0.6650     3.1120 h1         1 1C7       0.055700
     34 H4           1.3420    -0.4140    -2.0810 h1         1 1C7       0.114700
     35 H5           2.9650     1.8490    -0.8600 hc         1 1C7       0.057700
     36 H6           2.9530     1.4210    -2.5760 hc         1 1C7       0.057700
     37 H7           0.3460     1.6680    -2.3370 hc         1 1C7       0.044367
     38 H8           0.7540     2.6210    -0.9030 hc         1 1C7       0.044367
     39 H9           1.3440     3.1200    -2.4950 hc         1 1C7       0.044367
     40 H10          4.4680     0.2320    -2.4660 h1         1 1C7       0.050700
     41 H11          4.9920    -2.4330    -1.4800 hc         1 1C7       0.055950
     42 H12          6.0640    -1.3910    -2.4440 hc         1 1C7       0.055950
     43 H13          5.7650    -3.0340    -4.0620 hc         1 1C7       0.048200
     44 H14          4.2220    -3.5830    -3.3530 hc         1 1C7       0.048200
     45 H15          3.4630    -2.3870    -5.2890 hc         1 1C7       0.048200
     46 H16          4.7300    -1.1390    -5.1150 hc         1 1C7       0.048200
     47 H17          2.2560    -1.5850    -3.3780 hc         1 1C7       0.055950
     48 H18          2.8390    -0.0610    -4.0990 hc         1 1C7       0.055950
     49 H19          3.5990     0.4150     3.1820 h4         1 1C7       0.044100
     50 H20          7.7360    -0.8030    -1.1720 h4         1 1C7       0.187000
     51 H21         10.2470    -0.8520    -0.4090 h4         1 1C7       0.045100
     52 H22          6.3930    -1.6680     3.4940 ha         1 1C7       0.137000
     53 H23          5.7750    -1.2350     5.8380 ha         1 1C7       0.129000
     54 H24          6.8570     0.5950     7.0840 ha         1 1C7       0.126000
     55 H25          8.5650     1.9960     5.9960 ha         1 1C7       0.129000
     56 H26          9.2000     1.5780     3.6530 ha         1 1C7       0.137000
@<TRIPOS>BOND
     1     8     7 1   
     2     7     6 1   
     3    21    22 2   
     4    21    20 1   
     5     4     3 1   
     6    19    18 ar  
     7    19     5 ar  
     8    18    17 ar  
     9    14    13 1   
    10    14    10 1   
    11     3     5 1   
    12     3     2 1   
    13    22    23 1   
    14     5    15 ar  
    15     1     2 2   
    16     2     6 1   
    17    17    20 1   
    18    17    16 ar  
    19    20    24 1   
    20    15    16 ar  
    21    15     9 1   
    22     6     9 1   
    23     9    10 1   
    24    13    12 1   
    25    23    24 2   
    26    10    11 1   
    27    24    25 1   
    28    11    12 1   
    29    25    26 ar  
    30    25    30 ar  
    31    26    27 ar  
    32    30    29 ar  
    33    27    28 ar  
    34    29    28 ar  
    35     4    31 1   
    36     4    32 1   
    37     4    33 1   
    38     6    34 1   
    39     7    35 1   
    40     7    36 1   
    41     8    37 1   
    42     8    38 1   
    43     8    39 1   
    44    10    40 1   
    45    11    41 1   
    46    11    42 1   
    47    12    43 1   
    48    12    44 1   
    49    13    45 1   
    50    13    46 1   
    51    14    47 1   
    52    14    48 1   
    53    19    49 1   
    54    21    50 1   
    55    22    51 1   
    56    26    52 1   
    57    27    53 1   
    58    28    54 1   
    59    29    55 1   
    60    30    56 1   
@<TRIPOS>SUBSTRUCTURE
     1 1C7         1 TEMP              0 ****  ****    0 ROOT
