@<TRIPOS>MOLECULE
1C7
   56    60     1     0     0
SMALL
bcc


@<TRIPOS>ATOM
      1 O18         -0.3610     0.0840     0.0080 o          1 1C7      -0.618500
      2 C8           0.8810     0.1230     0.0170 c          1 1C7       0.700500
      3 N7           1.5960    -0.0040     1.2040 n          1 1C7      -0.352000
      4 C19          0.9180    -0.1690     2.4620 c3         1 1C7       0.072300
      5 C2           2.9960     0.0500     1.1810 ca         1 1C7      -0.215000
      6 C9           1.6480     0.3190    -1.3030 c3         1 1C7       0.155500
      7 C16          1.4230     1.7710    -1.7570 c3         1 1C7      -0.106400
      8 C17          2.0440     2.8070    -0.8610 c3         1 1C7      -0.102100
      9 N10          3.0180    -0.1600    -1.2730 nh         1 1C7      -0.748300
     10 C11          3.7560    -0.2720    -2.5240 c3         1 1C7       0.220500
     11 C15          2.9290    -0.7200    -3.7490 c3         1 1C7      -0.095900
     12 C14          3.7760    -0.3250    -4.9500 c3         1 1C7      -0.080400
     13 C13          4.5980     0.8850    -4.5230 c3         1 1C7      -0.080400
     14 C12          4.5160     0.9860    -3.0060 c3         1 1C7      -0.095900
     15 C3           3.7310     0.0040    -0.0740 ca         1 1C7       0.677200
     16 N4           5.0950     0.0430    -0.0780 nb         1 1C7      -0.732000
     17 C5           5.7330     0.1000     1.1410 ca         1 1C7       0.742500
     18 N6           5.1130     0.1640     2.3700 nb         1 1C7      -0.706000
     19 C1           3.7710     0.1420     2.3580 ca         1 1C7       0.418200
     20 N20          7.1550     0.1270     1.1330 na         1 1C7      -0.238700
     21 C24          7.9310     0.9110     2.0020 cc         1 1C7      -0.215600
     22 C23          9.2590     0.7510     1.5860 cd         1 1C7       0.290200
     23 N22          9.3250    -0.1090     0.4890 nd         1 1C7      -0.654000
     24 C21          8.0530    -0.4860     0.2150 cc         1 1C7       0.489000
     25 C25          7.6660    -1.4380    -0.8260 ca         1 1C7      -0.110500
     26 C30          8.2070    -1.3030    -2.1120 ca         1 1C7      -0.095500
     27 C29          7.8870    -2.2340    -3.0990 ca         1 1C7      -0.138000
     28 C28          7.0330    -3.2990    -2.8100 ca         1 1C7      -0.123000
     29 C27          6.4980    -3.4350    -1.5290 ca         1 1C7      -0.138000
     30 C26          6.8140    -2.5110    -0.5350 ca         1 1C7      -0.095500
     31 H1           1.3300    -1.0610     3.0050 h1         1 1C7       0.057033
     32 H2          -0.1800    -0.3230     2.2780 h1         1 1C7       0.057033
     33 H3           1.0560     0.7460     3.1000 h1         1 1C7       0.057033
     34 H4           1.1010    -0.3540    -2.0390 h1         1 1C7       0.099700
     35 H5           0.3100     1.9290    -1.7990 hc         1 1C7       0.065700
     36 H6           1.8200     1.8840    -2.8000 hc         1 1C7       0.065700
     37 H7           1.8520     3.8280    -1.2730 hc         1 1C7       0.042367
     38 H8           3.1490     2.6650    -0.7800 hc         1 1C7       0.042367
     39 H9           1.6060     2.7580     0.1660 hc         1 1C7       0.042367
     40 H10          4.5270    -1.0850    -2.3440 h1         1 1C7       0.086700
     41 H11          1.9440    -0.1920    -3.8120 hc         1 1C7       0.054200
     42 H12          2.7350    -1.8180    -3.7160 hc         1 1C7       0.054200
     43 H13          3.1310    -0.0870    -5.8310 hc         1 1C7       0.045950
     44 H14          4.4500    -1.1690    -5.2420 hc         1 1C7       0.045950
     45 H15          4.1990     1.8170    -4.9960 hc         1 1C7       0.045950
     46 H16          5.6610     0.7730    -4.8550 hc         1 1C7       0.045950
     47 H17          3.9850     1.9230    -2.7030 hc         1 1C7       0.054200
     48 H18          5.5370     1.0160    -2.5530 hc         1 1C7       0.054200
     49 H19          3.3000     0.1930     3.3580 h4         1 1C7       0.039100
     50 H20          7.4900     1.4840     2.8160 h4         1 1C7       0.193000
     51 H21         10.1600     1.1940     2.0100 h4         1 1C7       0.046100
     52 H22          8.8890    -0.4690    -2.3350 ha         1 1C7       0.142500
     53 H23          8.3150    -2.1300    -4.1060 ha         1 1C7       0.133000
     54 H24          6.7870    -4.0340    -3.5910 ha         1 1C7       0.131000
     55 H25          5.8310    -4.2790    -1.2980 ha         1 1C7       0.133000
     56 H26          6.4000    -2.6290     0.4770 ha         1 1C7       0.142500
@<TRIPOS>BOND
     1     1     2 2   
     2     2     3 1   
     3     2     6 1   
     4     3     4 1   
     5     3     5 1   
     6     4    31 1   
     7     4    32 1   
     8     4    33 1   
     9     5    15 ar  
    10     5    19 ar  
    11     6     7 1   
    12     6     9 1   
    13     6    34 1   
    14     7     8 1   
    15     7    35 1   
    16     7    36 1   
    17     8    37 1   
    18     8    38 1   
    19     8    39 1   
    20     9    10 1   
    21     9    15 1   
    22    10    11 1   
    23    10    14 1   
    24    10    40 1   
    25    11    12 1   
    26    11    41 1   
    27    11    42 1   
    28    12    13 1   
    29    12    43 1   
    30    12    44 1   
    31    13    14 1   
    32    13    45 1   
    33    13    46 1   
    34    14    47 1   
    35    14    48 1   
    36    15    16 ar  
    37    16    17 ar  
    38    17    18 ar  
    39    17    20 1   
    40    18    19 ar  
    41    19    49 1   
    42    20    21 1   
    43    20    24 1   
    44    21    22 2   
    45    21    50 1   
    46    22    23 1   
    47    22    51 1   
    48    23    24 2   
    49    24    25 1   
    50    25    26 ar  
    51    25    30 ar  
    52    26    27 ar  
    53    26    52 1   
    54    27    28 ar  
    55    27    53 1   
    56    28    29 ar  
    57    28    54 1   
    58    29    30 ar  
    59    29    55 1   
    60    30    56 1   
@<TRIPOS>SUBSTRUCTURE
     1 1C7         1 TEMP              0 ****  ****    0 ROOT
