@<TRIPOS>MOLECULE
molecule
   52    56     1     0     0
SMALL
bcc


@<TRIPOS>ATOM
      1 O12          0.0000     0.0000     0.0000 o          1 1C8      -0.612500
      2 C9           1.2130     0.0000     0.0000 c          1 1C8       0.710500
      3 N10          1.8940     0.0000     1.1670 n          1 1C8      -0.367000
      4 C11          1.1890     0.1270     2.4450 c3         1 1C8       0.090300
      5 C2           3.2890    -0.1250     1.1280 ca         1 1C8      -0.214000
      6 C8           1.9740    -0.0050    -1.3010 c3         1 1C8       0.107500
      7 C13          2.3710     1.4270    -1.6610 c3         1 1C8      -0.120400
      8 C14          1.1110     2.2710    -1.8650 c3         1 1C8      -0.093100
      9 N7           3.1810    -0.8270    -1.1790 nh         1 1C8      -0.678300
     10 C15          4.0020    -0.7400    -2.3950 c3         1 1C8       0.179500
     11 C19          3.1290    -0.9960    -3.6410 c3         1 1C8      -0.075900
     12 C18          4.0520    -1.7970    -4.5920 c3         1 1C8      -0.085400
     13 C17          4.8270    -2.7210    -3.6200 c3         1 1C8      -0.085400
     14 C16          5.0810    -1.8380    -2.3810 c3         1 1C8      -0.075900
     15 C3           3.9240    -0.5090    -0.0580 ca         1 1C8       0.638200
     16 N4           5.2490    -0.5940    -0.0770 nb         1 1C8      -0.758000
     17 C5           5.9530    -0.3360     1.0140 ca         1 1C8       0.778500
     18 N6           5.3800     0.0120     2.1540 nb         1 1C8      -0.696000
     19 C1           4.0620     0.1300     2.2470 ca         1 1C8       0.453200
     20 N20          7.3430    -0.4360     0.9600 na         1 1C8      -0.193700
     21 C24          8.1680     0.1230     0.0120 cc         1 1C8      -0.237600
     22 C23          9.4290    -0.2210     0.3370 cd         1 1C8       0.315200
     23 N22          9.3950    -0.9670     1.4480 nd         1 1C8      -0.683000
     24 C21          8.1480    -1.1030     1.8430 cc         1 1C8       0.414500
     25 C25          7.6930    -1.8530     3.0330 cc         1 1C8       0.344300
     26 C29          8.5450    -2.3950     3.9310 cd         1 1C8      -0.135400
     27 S28          7.5830    -3.1880     5.1750 ss         1 1C8      -0.215300
     28 C27          6.1430    -2.7210     4.3800 cd         1 1C8       0.440300
     29 N26          6.4120    -2.0480     3.3180 nc         1 1C8      -0.665000
     30 H1           1.4860    -0.6810     3.1030 h1         1 1C8       0.054700
     31 H2           0.1210     0.0800     2.2740 h1         1 1C8       0.054700
     32 H3           1.4400     1.0760     2.9030 h1         1 1C8       0.054700
     33 H4           1.3430    -0.4130    -2.0810 h1         1 1C8       0.114700
     34 H5           2.9630     1.8510    -0.8580 hc         1 1C8       0.056700
     35 H6           2.9540     1.4220    -2.5740 hc         1 1C8       0.056700
     36 H7           0.7510     2.6210    -0.9050 hc         1 1C8       0.043700
     37 H8           0.3460     1.6670    -2.3390 hc         1 1C8       0.043700
     38 H9           1.3430     3.1200    -2.4960 hc         1 1C8       0.043700
     39 H10          4.4680     0.2350    -2.4650 h1         1 1C8       0.047700
     40 H11          2.8390    -0.0580    -4.0980 hc         1 1C8       0.057700
     41 H12          2.2570    -1.5830    -3.3770 hc         1 1C8       0.057700
     42 H13          3.4650    -2.3830    -5.2900 hc         1 1C8       0.047200
     43 H14          4.7320    -1.1340    -5.1130 hc         1 1C8       0.047200
     44 H15          4.2240    -3.5810    -3.3540 hc         1 1C8       0.047200
     45 H16          5.7660    -3.0310    -4.0620 hc         1 1C8       0.047200
     46 H17          6.0650    -1.3890    -2.4430 hc         1 1C8       0.057700
     47 H18          4.9930    -2.4310    -1.4790 hc         1 1C8       0.057700
     48 H19          3.5990     0.4160     3.1840 h4         1 1C8       0.040100
     49 H20          7.8620     0.7240    -0.8350 h4         1 1C8       0.182000
     50 H21         10.3210     0.0590    -0.2100 h4         1 1C8       0.045100
     51 H22          9.6260    -2.3490     3.8930 h4         1 1C8       0.202000
     52 H23          5.1440    -2.9550     4.7270 h5         1 1C8       0.060100
@<TRIPOS>BOND
     1     8     7 1
     2     7     6 1
     3    21    22 2
     4    21    20 1
     5    22    23 1
     6    11    12 1
     7    11    10 1
     8     4     3 1
     9    19    18 ar
    10    19     5 ar
    11    18    17 ar
    12     3     5 1
    13     3     2 1
    14     5    15 ar
    15     1     2 2
    16     2     6 1
    17    17    20 1
    18    17    16 ar
    19    20    24 1
    20    15    16 ar
    21    15     9 1
    22    12    13 1
    23     6     9 1
    24     9    10 1
    25    23    24 2
    26    10    14 1
    27    24    25 1
    28    13    14 1
    29    25    29 1
    30    25    26 2
    31    29    28 2
    32    26    27 1
    33    28    27 1
    34     4    30 1
    35     4    31 1
    36     4    32 1
    37     6    33 1
    38     7    34 1
    39     7    35 1
    40     8    36 1
    41     8    37 1
    42     8    38 1
    43    10    39 1
    44    11    40 1
    45    11    41 1
    46    12    42 1
    47    12    43 1
    48    13    44 1
    49    13    45 1
    50    14    46 1
    51    14    47 1
    52    19    48 1
    53    21    49 1
    54    22    50 1
    55    26    51 1
    56    28    52 1
@<TRIPOS>SUBSTRUCTURE
     1 1C8         1 TEMP              0 ****  ****    0 ROOT
