@<TRIPOS>MOLECULE
1C8
   52    56     1     0     0
SMALL
bcc


@<TRIPOS>ATOM
      1 O12         -0.1120    -0.1860    -0.1290 o          1 1C8      -0.618500
      2 C9           1.1240    -0.0590    -0.1070 c          1 1C8       0.701500
      3 N10          1.8260    -0.0420     1.0930 n          1 1C8      -0.353000
      4 C11          1.1400    -0.1520     2.3540 c3         1 1C8       0.072300
      5 C2           3.2200     0.0970     1.0800 ca         1 1C8      -0.216000
      6 C8           1.9000     0.0920    -1.4270 c3         1 1C8       0.154500
      7 C13          1.5990     1.4950    -1.9800 c3         1 1C8      -0.106400
      8 C14          2.1250     2.6240    -1.1350 c3         1 1C8      -0.102100
      9 N7           3.2940    -0.3070    -1.3490 nh         1 1C8      -0.746300
     10 C15          4.0550    -0.4280    -2.5870 c3         1 1C8       0.220500
     11 C19          4.7450     0.8520    -3.1160 c3         1 1C8      -0.098400
     12 C18          4.8280     0.7050    -4.6300 c3         1 1C8      -0.080400
     13 C17          4.1120    -0.5860    -5.0060 c3         1 1C8      -0.080400
     14 C16          3.2760    -0.9840    -3.7990 c3         1 1C8      -0.098400
     15 C3           3.9800    -0.0230    -0.1550 ca         1 1C8       0.674200
     16 N4           5.3420     0.0640    -0.1410 nb         1 1C8      -0.722000
     17 C5           5.9510     0.2800     1.0750 ca         1 1C8       0.743500
     18 N6           5.3040     0.4450     2.2820 nb         1 1C8      -0.708000
     19 C1           3.9660     0.3500     2.2530 ca         1 1C8       0.420200
     20 N20          7.3700     0.3640     1.0920 na         1 1C8      -0.232700
     21 C24          8.1130     1.1960     1.9450 cc         1 1C8      -0.210600
     22 C23          9.4600     0.9570     1.6430 cd         1 1C8       0.286200
     23 N22          9.5720    -0.0070     0.6380 nd         1 1C8      -0.637000
     24 C21          8.3090    -0.3620     0.3130 cc         1 1C8       0.407500
     25 C25          7.9390    -1.3850    -0.6630 cc         1 1C8       0.312300
     26 C29          7.8410    -2.7400    -0.3530 cd         1 1C8      -0.216400
     27 S28          7.4480    -3.6190    -1.7180 ss         1 1C8      -0.081300
     28 C27          7.4200    -2.1880    -2.6590 cd         1 1C8       0.355300
     29 N26          7.6970    -1.0690    -2.0000 nc         1 1C8      -0.581000
     30 H1           1.6090    -0.9610     2.9760 h1         1 1C8       0.056700
     31 H2           1.1970     0.8210     2.9120 h1         1 1C8       0.056700
     32 H3           0.0610    -0.4050     2.1710 h1         1 1C8       0.056700
     33 H4           1.4050    -0.6590    -2.1240 h1         1 1C8       0.098700
     34 H5           2.0220     1.5690    -3.0170 hc         1 1C8       0.065700
     35 H6           0.4810     1.5780    -2.0630 hc         1 1C8       0.065700
     36 H7           1.6450     2.6220    -0.1260 hc         1 1C8       0.042367
     37 H8           1.8990     3.6010    -1.6270 hc         1 1C8       0.042367
     38 H9           3.2310     2.5490    -0.9990 hc         1 1C8       0.042367
     39 H10          4.8730    -1.1820    -2.3630 h1         1 1C8       0.079700
     40 H11          4.1680     1.7700    -2.8420 hc         1 1C8       0.057200
     41 H12          5.7660     0.9480    -2.6700 hc         1 1C8       0.057200
     42 H13          5.8940     0.6770    -4.9660 hc         1 1C8       0.044950
     43 H14          4.3430     1.5800    -5.1310 hc         1 1C8       0.044950
     44 H15          4.8580    -1.3880    -5.2410 hc         1 1C8       0.044950
     45 H16          3.4690    -0.4490    -5.9100 hc         1 1C8       0.044950
     46 H17          2.2600    -0.5270    -3.8970 hc         1 1C8       0.057200
     47 H18          3.1540    -2.0910    -3.7180 hc         1 1C8       0.057200
     48 H19          3.4730     0.4770     3.2360 h4         1 1C8       0.038100
     49 H20          7.6380     1.8560     2.6700 h4         1 1C8       0.193000
     50 H21         10.3450     1.4160     2.0830 h4         1 1C8       0.047100
     51 H22          8.0090    -3.1710     0.6320 h4         1 1C8       0.191000
     52 H23          7.1970    -2.1800    -3.7290 h5         1 1C8       0.055100
@<TRIPOS>BOND
     1     1     2 2   
     2     2     3 1   
     3     2     6 1   
     4     3     4 1   
     5     3     5 1   
     6     4    30 1   
     7     4    31 1   
     8     4    32 1   
     9     5    15 ar  
    10     5    19 ar  
    11     6     7 1   
    12     6     9 1   
    13     6    33 1   
    14     7     8 1   
    15     7    34 1   
    16     7    35 1   
    17     8    36 1   
    18     8    37 1   
    19     8    38 1   
    20     9    10 1   
    21     9    15 1   
    22    10    11 1   
    23    10    14 1   
    24    10    39 1   
    25    11    12 1   
    26    11    40 1   
    27    11    41 1   
    28    12    13 1   
    29    12    42 1   
    30    12    43 1   
    31    13    14 1   
    32    13    44 1   
    33    13    45 1   
    34    14    46 1   
    35    14    47 1   
    36    15    16 ar  
    37    16    17 ar  
    38    17    18 ar  
    39    17    20 1   
    40    18    19 ar  
    41    19    48 1   
    42    20    21 1   
    43    20    24 1   
    44    21    22 2   
    45    21    49 1   
    46    22    23 1   
    47    22    50 1   
    48    23    24 2   
    49    24    25 1   
    50    25    26 2   
    51    25    29 1   
    52    26    27 1   
    53    26    51 1   
    54    27    28 1   
    55    28    29 2   
    56    28    52 1   
@<TRIPOS>SUBSTRUCTURE
     1 1C8         1 TEMP              0 ****  ****    0 ROOT
