@<TRIPOS>MOLECULE
1C9
   58    63     1     0     0
SMALL
bcc


@<TRIPOS>ATOM
      1 C1           0.0000     0.0000     0.0000 ca         1 1C9      -0.117000
      2 C2           1.4030     0.0000     0.0000 ca         1 1C9       0.115000
      3 C3           2.1070     0.0000     1.1830 ca         1 1C9      -0.203000
      4 C4           1.4150    -0.0020     2.4010 ca         1 1C9       0.075000
      5 C5          -0.0020    -0.0020     2.4000 ca         1 1C9      -0.198000
      6 C6          -0.7000    -0.0020     1.1870 ca         1 1C9      -0.060000
      7 N7           2.0580    -0.0080     3.5790 n2         1 1C9      -0.159000
      8 C8           1.3860    -0.0150     4.7040 c2         1 1C9       0.024000
      9 N9           0.0630    -0.0060     4.7530 n2         1 1C9      -0.211000
     10 C10         -0.6710    -0.0040     3.6480 c2         1 1C9       0.033000
     11 N14         -2.0500    -0.0050     3.7130 nu         1 1C9       0.200000
     12 C15         -2.6920    -0.1080     4.9520 ca         1 1C9      -0.092000
     13 C16         -3.8880    -0.8060     5.0580 ca         1 1C9      -0.109000
     14 C17         -4.5230    -0.9010     6.2820 ca         1 1C9      -0.136000
     15 C18         -3.9670    -0.3030     7.4000 ca         1 1C9       0.060000
     16 C19         -2.7740     0.3920     7.2950 ca         1 1C9      -0.106000
     17 C20         -2.1360     0.4900     6.0740 ca         1 1C9      -0.082000
     18 F21         -4.5880    -0.3980     8.5960 f          1 1C9      -0.088000
     19 Cl          -6.0190    -1.7720     6.4170 cl         1 1C9       0.080000
     20 O11          2.0750     0.0020    -1.1810 os         1 1C9      -0.204000
     21 C12          3.5020     0.0020    -1.1150 c3         1 1C9       0.058000
     22 N13         -0.6950     0.0010    -1.2150 nu         1 1C9       0.107000
     23 C26         -1.9490     0.4910    -1.2740 c3         1 1C9       0.331000
     24 C24         -2.7230     0.3800    -2.5200 c2         1 1C9      -0.177000
     25 C23         -3.9610     0.8650    -2.5790 c2         1 1C9      -0.008000
     26 C25         -4.7550     0.7510    -3.8540 DU         1 1C9       0.007000
     27 N33         -6.0320     0.0810    -3.5790 n3         1 1C9      -0.081000
     28 O27         -2.4390     1.0250    -0.2980 o          1 1C9      -0.450000
     29 C30         -6.9300     0.1620    -4.7380 c3         1 1C9      -0.083500
     30 C31         -8.2980    -0.4150    -4.3660 c3         1 1C9      -0.102000
     31 C32         -8.1300    -1.8720    -3.9290 c3         1 1C9      -0.106000
     32 C33         -7.1530    -1.9340    -2.7510 c3         1 1C9      -0.102000
     33 C34         -5.8180    -1.3130    -3.1700 c3         1 1C9      -0.083500
     34 H6          -1.7830    -0.0020     1.1810 ha         1 1C9       0.158000
     35 H8           1.9380    -0.0160     5.6360 h5         1 1C9       0.130000
     36 H20         -1.2030     1.0340     5.9930 ha         1 1C9       0.153000
     37 H24         -2.2270     1.2840    -2.1860 DU         1 1C9       0.021000
     38 H19         -2.3410     0.8590     8.1710 ha         1 1C9       0.122000
     39 H3           3.1900    -0.0000     1.1720 ha         1 1C9       0.141000
     40 H16         -4.3230    -1.2740     4.1830 ha         1 1C9       0.121000
     41 H12          3.8390     0.8860    -0.5870 h1         1 1C9       0.042000
     42 H12A         3.9110     0.0040    -2.1190 h1         1 1C9       0.042000
     43 H12B         3.8400    -0.8830    -0.5890 h1         1 1C9       0.042000
     44 H23         -3.8260     1.5050    -3.4420 DU         1 1C9       0.035000
     45 H25         -4.9440     1.7410    -4.2510 ha         1 1C9       0.059500
     46 H25A        -4.1930     0.1740    -4.5790 ha         1 1C9       0.059500
     47 HN14        -2.5900     0.0760     2.8740 hn         1 1C9       0.100000
     48 HN13        -0.2680    -0.3800    -2.0360 hn         1 1C9       0.098000
     49 H161        -7.0450     1.1990    -5.0320 h1         1 1C9       0.049500
     50 H17         -6.5100    -0.4070    -5.5590 h1         1 1C9       0.049500
     51 H18         -8.9540    -0.3710    -5.2280 hc         1 1C9       0.060000
     52 H191        -8.7230     0.1590    -3.5520 hc         1 1C9       0.060000
     53 H201        -9.0900    -2.2700    -3.6230 hc         1 1C9       0.052500
     54 H21         -7.7370    -2.4540    -4.7540 hc         1 1C9       0.052500
     55 H22         -6.9960    -2.9670    -2.4660 hc         1 1C9       0.060000
     56 H231        -7.5610    -1.3800    -1.9150 hc         1 1C9       0.060000
     57 H241        -5.4060    -1.8730    -4.0010 h1         1 1C9       0.049500
     58 H251        -5.1300    -1.3410    -2.3330 h1         1 1C9       0.049500
@<TRIPOS>BOND
     1     1     2 1   
     2     1     6 1   
     3     1    22 1   
     4     2     3 1   
     5     2    20 1   
     6     3     4 1   
     7     3    39 1   
     8     4     5 1   
     9     4     7 1   
    10     5     6 1   
    11     5    10 1   
    12     6    34 1   
    13     7     8 1   
    14     8     9 1   
    15     8    35 1   
    16     9    10 1   
    17    10    11 1   
    18    11    12 1   
    19    11    47 1   
    20    12    13 1   
    21    12    17 1   
    22    13    14 1   
    23    13    40 1   
    24    14    15 1   
    25    14    19 1   
    26    15    16 1   
    27    15    18 1   
    28    16    17 1   
    29    16    38 1   
    30    17    36 1   
    31    20    21 1   
    32    21    41 1   
    33    21    42 1   
    34    21    43 1   
    35    22    23 1   
    36    22    48 1   
    37    23    24 1   
    38    23    28 1   
    39    23    37 1   
    40    24    25 1   
    41    24    37 1   
    42    25    26 1   
    43    25    44 1   
    44    26    27 1   
    45    26    44 1   
    46    26    45 1   
    47    26    46 1   
    48    27    29 1   
    49    27    33 1   
    50    29    30 1   
    51    29    49 1   
    52    29    50 1   
    53    30    31 1   
    54    30    51 1   
    55    30    52 1   
    56    31    32 1   
    57    31    53 1   
    58    31    54 1   
    59    32    33 1   
    60    32    55 1   
    61    32    56 1   
    62    33    57 1   
    63    33    58 1   
@<TRIPOS>SUBSTRUCTURE
     1 1C9         1 TEMP              0 ****  ****    0 ROOT
