@<TRIPOS>MOLECULE
1C9
   58    61     1     0     0
SMALL
bcc


@<TRIPOS>ATOM
      1 C1          -0.1170    -0.3250    -0.1470 ca         1 1C9       0.045600
      2 C2           1.3230    -0.4920    -0.1340 ca         1 1C9       0.122100
      3 C3           2.0510    -0.3440     1.0240 ca         1 1C9      -0.251300
      4 C4           1.4010    -0.0340     2.2560 ca         1 1C9       0.449600
      5 C5          -0.0180     0.1220     2.2580 ca         1 1C9      -0.289600
      6 C6          -0.7410    -0.0030     1.0520 ca         1 1C9      -0.108000
      7 N7           2.1550     0.1070     3.4080 nb         1 1C9      -0.718000
      8 C8           1.4730     0.3910     4.5170 ca         1 1C9       0.671900
      9 N9           0.1170     0.5470     4.6680 nb         1 1C9      -0.772000
     10 C10         -0.6390     0.4160     3.5530 ca         1 1C9       0.703200
     11 N14         -2.0240     0.5950     3.6070 nu         1 1C9      -0.727300
     12 C15         -2.7420     0.7790     4.8080 ca         1 1C9       0.136600
     13 C16         -2.3880     1.7840     5.7300 ca         1 1C9      -0.091000
     14 C17         -3.1580     1.9940     6.8760 ca         1 1C9      -0.007600
     15 C18         -4.3050     1.2090     7.1170 ca         1 1C9       0.117900
     16 C19         -4.6630     0.2140     6.1890 ca         1 1C9      -0.141000
     17 C20         -3.8940    -0.0020     5.0560 ca         1 1C9      -0.144000
     18 F21         -5.0710     1.3910     8.2170 f          1 1C9      -0.126900
     19 Cl          -2.6850     3.2130     7.9590 cl         1 1C9      -0.066400
     20 O11          1.8890    -0.8010    -1.3580 os         1 1C9      -0.345900
     21 C12          3.3070    -0.9320    -1.3870 c3         1 1C9       0.116700
     22 N13         -0.8120    -0.4570    -1.3590 ns         1 1C9      -0.457100
     23 C26         -2.1630    -0.7590    -1.5000 c          1 1C9       0.673300
     24 C24         -2.6430    -0.9600    -2.8910 ce         1 1C9      -0.265200
     25 C23         -3.9350    -1.2220    -3.1320 c2         1 1C9      -0.061200
     26 C25         -4.4610    -1.3820    -4.5230 c3         1 1C9       0.178000
     27 N33         -5.6880    -2.1670    -4.6000 n3         1 1C9      -0.717600
     28 O27         -2.9320    -0.8380    -0.5200 o          1 1C9      -0.612100
     29 C30         -6.2860    -2.1310    -5.9250 c3         1 1C9       0.161800
     30 C31         -5.5720    -2.9390    -7.0120 c3         1 1C9      -0.106900
     31 C32         -4.9070    -4.1820    -6.4540 c3         1 1C9      -0.077400
     32 C33         -5.5600    -4.6330    -5.1650 c3         1 1C9      -0.106900
     33 C34         -5.5460    -3.5320    -4.1020 c3         1 1C9       0.161800
     34 H6          -1.8320     0.1630     1.0420 ha         1 1C9       0.172000
     35 H8           2.0580     0.5120     5.4540 h5         1 1C9       0.054100
     36 H20         -4.1980    -0.7910     4.3490 ha         1 1C9       0.144000
     37 H24         -1.9070    -0.8840    -3.7060 ha         1 1C9       0.134000
     38 H19         -5.5610    -0.3950     6.3780 ha         1 1C9       0.154000
     39 H3           3.1460    -0.4630     1.0300 ha         1 1C9       0.162000
     40 H16         -1.5000     2.4140     5.5600 ha         1 1C9       0.173000
     41 H12          3.6370    -1.7730    -0.7300 h1         1 1C9       0.051033
     42 H12A         3.7980     0.0240    -1.0810 h1         1 1C9       0.051033
     43 H12B         3.5210    -1.1610    -2.4620 h1         1 1C9       0.051033
     44 H23         -4.6630    -1.2980    -2.3030 ha         1 1C9       0.166000
     45 H25         -3.6490    -1.8030    -5.1880 h1         1 1C9       0.048700
     46 H25A        -4.7030    -0.3450    -4.9050 h1         1 1C9       0.048700
     47 HN14        -2.5370     0.1280     2.8870 hn         1 1C9       0.444800
     48 HN13        -0.2390    -0.5050    -2.1750 hn         1 1C9       0.332500
     49 H161        -7.3320    -2.5340    -5.8050 h1         1 1C9       0.051950
     50 H17         -6.3680    -1.0580    -6.2550 h1         1 1C9       0.051950
     51 H18         -4.8010    -2.2990    -7.5150 hc         1 1C9       0.045450
     52 H191        -6.3260    -3.2210    -7.7910 hc         1 1C9       0.045450
     53 H201        -4.9540    -5.0090    -7.2090 hc         1 1C9       0.041200
     54 H21         -3.8210    -3.9730    -6.2610 hc         1 1C9       0.041200
     55 H22         -5.0280    -5.5320    -4.7620 hc         1 1C9       0.045450
     56 H231        -6.6200    -4.9340    -5.3750 hc         1 1C9       0.045450
     57 H241        -4.6020    -3.6250    -3.4940 h1         1 1C9       0.051950
     58 H251        -6.4150    -3.7000    -3.4040 h1         1 1C9       0.051950
@<TRIPOS>BOND
     1     1     2 ar  
     2     1     6 ar  
     3     1    22 1   
     4     2     3 ar  
     5     2    20 1   
     6     3     4 ar  
     7     3    39 1   
     8     4     5 ar  
     9     4     7 ar  
    10     5     6 ar  
    11     5    10 ar  
    12     6    34 1   
    13     7     8 ar  
    14     8     9 ar  
    15     8    35 1   
    16     9    10 ar  
    17    10    11 1   
    18    11    12 1   
    19    11    47 1   
    20    12    13 ar  
    21    12    17 ar  
    22    13    14 ar  
    23    13    40 1   
    24    14    15 ar  
    25    14    19 1   
    26    15    16 ar  
    27    15    18 1   
    28    16    17 ar  
    29    16    38 1   
    30    17    36 1   
    31    20    21 1   
    32    21    41 1   
    33    21    42 1   
    34    21    43 1   
    35    22    23 1   
    36    22    48 1   
    37    23    24 1   
    38    23    28 2   
    39    24    25 2   
    40    24    37 1   
    41    25    26 1   
    42    25    44 1   
    43    26    27 1   
    44    26    45 1   
    45    26    46 1   
    46    27    29 1   
    47    27    33 1   
    48    29    30 1   
    49    29    49 1   
    50    29    50 1   
    51    30    31 1   
    52    30    51 1   
    53    30    52 1   
    54    31    32 1   
    55    31    53 1   
    56    31    54 1   
    57    32    33 1   
    58    32    55 1   
    59    32    56 1   
    60    33    57 1   
    61    33    58 1   
@<TRIPOS>SUBSTRUCTURE
     1 1C9         1 TEMP              0 ****  ****    0 ROOT
