@<TRIPOS>MOLECULE
molecule
   58    61     1     0     0
SMALL
bcc


@<TRIPOS>ATOM
      1 C1           0.0000     0.0000     0.0000 ca         1 1C9       0.027600
      2 C2           1.4030     0.0000     0.0000 ca         1 1C9       0.149100
      3 C3           2.1070     0.0000     1.1830 ca         1 1C9      -0.275300
      4 C4           1.4150    -0.0020     2.4010 ca         1 1C9       0.494600
      5 C5          -0.0020    -0.0020     2.4000 ca         1 1C9      -0.330600
      6 C6          -0.7000    -0.0020     1.1870 ca         1 1C9      -0.081000
      7 N7           2.0580    -0.0080     3.5790 nb         1 1C9      -0.774000
      8 C8           1.3860    -0.0150     4.7040 ca         1 1C9       0.726900
      9 N9           0.0630    -0.0060     4.7530 nb         1 1C9      -0.834000
     10 C10         -0.6710    -0.0040     3.6480 ca         1 1C9       0.750200
     11 N14         -2.0500    -0.0050     3.7130 nu         1 1C9      -0.754300
     12 C15         -2.6920    -0.1080     4.9520 ca         1 1C9       0.143600
     13 C16         -3.8880    -0.8060     5.0580 ca         1 1C9      -0.135000
     14 C17         -4.5230    -0.9010     6.2820 ca         1 1C9       0.000400
     15 C18         -3.9670    -0.3030     7.4000 ca         1 1C9       0.123900
     16 C19         -2.7740     0.3920     7.2950 ca         1 1C9      -0.147000
     17 C20         -2.1360     0.4900     6.0740 ca         1 1C9      -0.098000
     18 F21         -4.5880    -0.3980     8.5960 f          1 1C9      -0.129900
     19 Cl          -6.0190    -1.7720     6.4170 cl         1 1C9      -0.087400
     20 O11          2.0750     0.0020    -1.1810 os         1 1C9      -0.336900
     21 C12          3.5020     0.0020    -1.1150 c3         1 1C9       0.127700
     22 N13         -0.6950     0.0010    -1.2150 ns         1 1C9      -0.458100
     23 C26         -1.9490     0.4910    -1.2740 c          1 1C9       0.670300
     24 C24         -2.7230     0.3800    -2.5200 ce         1 1C9      -0.271200
     25 C23         -3.9610     0.8650    -2.5790 c2         1 1C9      -0.061200
     26 C25         -4.7550     0.7510    -3.8540 c3         1 1C9       0.184000
     27 N33         -6.0320     0.0810    -3.5790 n3         1 1C9      -0.725600
     28 O27         -2.4390     1.0250    -0.2980 o          1 1C9      -0.619100
     29 C30         -6.9300     0.1620    -4.7380 c3         1 1C9       0.163300
     30 C31         -8.2980    -0.4150    -4.3660 c3         1 1C9      -0.077900
     31 C32         -8.1300    -1.8720    -3.9290 c3         1 1C9      -0.083400
     32 C33         -7.1530    -1.9340    -2.7510 c3         1 1C9      -0.077900
     33 C34         -5.8180    -1.3130    -3.1700 c3         1 1C9       0.163300
     34 H6          -1.7830    -0.0020     1.1810 ha         1 1C9       0.173000
     35 H8           1.9380    -0.0160     5.6360 h5         1 1C9       0.057100
     36 H20         -1.2030     1.0340     5.9930 ha         1 1C9       0.179000
     37 H24         -2.2850    -0.0960    -3.3890 ha         1 1C9       0.130000
     38 H19         -2.3410     0.8590     8.1710 ha         1 1C9       0.154000
     39 H3           3.1900    -0.0000     1.1720 ha         1 1C9       0.161000
     40 H16         -4.3230    -1.2740     4.1830 ha         1 1C9       0.150000
     41 H12          3.9110     0.0040    -2.1190 h1         1 1C9       0.048033
     42 H12A         3.8390     0.8860    -0.5870 h1         1 1C9       0.048033
     43 H12B         3.8400    -0.8830    -0.5890 h1         1 1C9       0.048033
     44 H23         -4.3980     1.3400    -1.7090 ha         1 1C9       0.164000
     45 H25         -4.9440     1.7410    -4.2510 h1         1 1C9       0.044700
     46 H25A        -4.1930     0.1740    -4.5790 h1         1 1C9       0.044700
     47 HN14        -2.5900     0.1010     2.8770 hn         1 1C9       0.471800
     48 HN13        -0.2680    -0.3810    -2.0360 hn         1 1C9       0.337500
     49 H161        -7.0450     1.1990    -5.0320 h1         1 1C9       0.034450
     50 H17         -6.5100    -0.4070    -5.5590 h1         1 1C9       0.034450
     51 H18         -8.9540    -0.3710    -5.2280 hc         1 1C9       0.050200
     52 H191        -8.7230     0.1590    -3.5520 hc         1 1C9       0.050200
     53 H201        -7.7370    -2.4540    -4.7540 hc         1 1C9       0.041700
     54 H21         -9.0900    -2.2700    -3.6230 hc         1 1C9       0.041700
     55 H22         -7.5610    -1.3800    -1.9150 hc         1 1C9       0.050200
     56 H231        -6.9960    -2.9670    -2.4660 hc         1 1C9       0.050200
     57 H241        -5.1300    -1.3410    -2.3330 h1         1 1C9       0.034450
     58 H251        -5.4060    -1.8730    -4.0010 h1         1 1C9       0.034450
@<TRIPOS>BOND
     1     4     5 ar  
     2     5     6 ar  
     3     5    10 ar  
     4     6    34 1   
     5     8     9 ar  
     6     8    35 1   
     7    10    11 1   
     8    12    13 ar  
     9    12    17 ar  
    10    14    19 1   
    11    14    15 ar  
    12    17    16 ar  
    13    17    36 1   
    14    24    25 2   
    15    24    37 1   
    16    23    24 1   
    17    23    28 2   
    18    16    15 ar  
    19    16    38 1   
    20     3     4 ar  
    21     3     2 ar  
    22     3    39 1   
    23    13    14 ar  
    24    13    40 1   
    25     1     6 ar  
    26     1    22 1   
    27     2     1 ar  
    28    15    18 1   
    29    21    20 1   
    30    21    41 1   
    31    21    42 1   
    32    21    43 1   
    33    25    26 1   
    34    25    44 1   
    35    26    27 1   
    36    26    45 1   
    37    26    46 1   
    38     7     4 ar  
    39     7     8 ar  
    40     9    10 ar  
    41    11    12 1   
    42    11    47 1   
    43    22    23 1   
    44    22    48 1   
    45    20     2 1   
    46    27    29 1   
    47    27    33 1   
    48    29    30 1   
    49    30    31 1   
    50    31    32 1   
    51    32    33 1   
    52    29    49 1   
    53    29    50 1   
    54    30    51 1   
    55    30    52 1   
    56    31    53 1   
    57    31    54 1   
    58    32    55 1   
    59    32    56 1   
    60    33    57 1   
    61    33    58 1   
@<TRIPOS>SUBSTRUCTURE
     1 1C9         1 TEMP              0 ****  ****    0 ROOT
