@<TRIPOS>MOLECULE
1CA
   54    57     1     0     0
SMALL
bcc


@<TRIPOS>ATOM
      1 C1          -0.2260     0.1240     0.2450 c3         1 1CA      -0.070400
      2 C2           1.2710    -0.0380     0.1190 c3         1 1CA      -0.182400
      3 C3           1.9500     0.0810     1.4530 c          1 1CA       0.569300
      4 C4           1.2180    -0.5010     2.5850 ce         1 1CA      -0.264200
      5 C5          -0.0490    -0.9410     2.5020 c2         1 1CA      -0.029400
      6 C6          -0.6890    -1.6040     3.6750 c3         1 1CA      -0.054200
      7 C7          -2.0700    -1.0560     3.9590 c3         1 1CA      -0.072400
      8 C8          -2.9380    -1.1260     2.7140 c3         1 1CA      -0.050700
      9 C9          -2.2830    -0.3310     1.5750 c3         1 1CA      -0.048700
     10 C10         -0.8690    -0.8570     1.2360 c3         1 1CA      -0.014800
     11 C11         -3.1780    -0.2640     0.3420 c3         1 1CA      -0.074400
     12 C12         -4.5940     0.2060     0.6340 c3         1 1CA      -0.069400
     13 C13         -5.2210    -0.6370     1.7320 c3         1 1CA      -0.038000
     14 C14         -4.3030    -0.5250     2.9730 c3         1 1CA      -0.061700
     15 C15         -5.1550    -1.0610     4.1150 c3         1 1CA      -0.072400
     16 C16         -6.5830    -0.6350     3.7610 c3         1 1CA      -0.075400
     17 C17         -6.5570    -0.1090     2.3130 c3         1 1CA      -0.160700
     18 C18         -5.4250    -2.0650     1.2530 c3         1 1CA      -0.094100
     19 C19         -0.9130    -2.2460     0.6050 c3         1 1CA      -0.086100
     20 C20         -7.7600    -0.5270     1.5200 c          1 1CA       0.545100
     21 C21         -8.1820     0.4300     0.4270 c3         1 1CA       0.029400
     22 O3           3.0620     0.6060     1.5820 o          1 1CA      -0.534100
     23 O20         -8.4120    -1.5550     1.7340 o          1 1CA      -0.532100
     24 O21         -9.0390    -0.1630    -0.5230 oh         1 1CA      -0.589800
     25 H11         -0.6890    -0.0220    -0.7670 hc         1 1CA       0.050200
     26 H12         -0.4520     1.1750     0.5700 hc         1 1CA       0.050200
     27 H21          1.6790     0.7340    -0.5870 hc         1 1CA       0.072200
     28 H22          1.5200    -1.0480    -0.3050 hc         1 1CA       0.072200
     29 H4           1.7870    -0.5650     3.5270 ha         1 1CA       0.148000
     30 H61         -0.7590    -2.7050     3.4540 hc         1 1CA       0.056200
     31 H62         -0.0480    -1.4870     4.5900 hc         1 1CA       0.056200
     32 H71         -1.9940     0.0060     4.3110 hc         1 1CA       0.048200
     33 H72         -2.5490    -1.6510     4.7810 hc         1 1CA       0.048200
     34 H8          -3.0470    -2.2040     2.4150 hc         1 1CA       0.059700
     35 H9          -2.1510     0.7270     1.9510 hc         1 1CA       0.051700
     36 H111        -2.7230     0.4440    -0.4010 hc         1 1CA       0.045700
     37 H112        -3.2240    -1.2740    -0.1450 hc         1 1CA       0.045700
     38 H121        -5.2020     0.1340    -0.3050 hc         1 1CA       0.043700
     39 H122        -4.5780     1.2830     0.9480 hc         1 1CA       0.043700
     40 H14         -4.1450     0.5770     3.1740 hc         1 1CA       0.047700
     41 H151        -4.8340    -0.6330     5.0960 hc         1 1CA       0.048200
     42 H152        -5.0770    -2.1740     4.1840 hc         1 1CA       0.048200
     43 H161        -7.2820    -1.5050     3.8450 hc         1 1CA       0.057200
     44 H162        -6.9420     0.1660     4.4510 hc         1 1CA       0.057200
     45 H17         -6.5210     1.0150     2.3260 hc         1 1CA       0.064700
     46 H181        -4.4570    -2.5500     0.9850 hc         1 1CA       0.045367
     47 H182        -5.9220    -2.6720     2.0490 hc         1 1CA       0.045367
     48 H183        -6.0810    -2.0700     0.3470 hc         1 1CA       0.045367
     49 H191        -1.3720    -2.2000    -0.4120 hc         1 1CA       0.041367
     50 H192        -1.5070    -2.9500     1.2340 hc         1 1CA       0.041367
     51 H193         0.1230    -2.6510     0.5020 hc         1 1CA       0.041367
     52 H211        -7.2890     0.7840    -0.1560 h1         1 1CA       0.068200
     53 H212        -8.6930     1.3120     0.9020 h1         1 1CA       0.068200
     54 HO          -9.6310    -0.7660    -0.0510 ho         1 1CA       0.420000
@<TRIPOS>BOND
     1     1     2 1   
     2     1    10 1   
     3     1    25 1   
     4     1    26 1   
     5     2     3 1   
     6     2    27 1   
     7     2    28 1   
     8     3     4 1   
     9     3    22 2   
    10     4     5 2   
    11     4    29 1   
    12     5     6 1   
    13     5    10 1   
    14     6     7 1   
    15     6    30 1   
    16     6    31 1   
    17     7     8 1   
    18     7    32 1   
    19     7    33 1   
    20     8     9 1   
    21     8    14 1   
    22     8    34 1   
    23     9    10 1   
    24     9    11 1   
    25     9    35 1   
    26    10    19 1   
    27    11    12 1   
    28    11    36 1   
    29    11    37 1   
    30    12    13 1   
    31    12    38 1   
    32    12    39 1   
    33    13    14 1   
    34    13    17 1   
    35    13    18 1   
    36    14    15 1   
    37    14    40 1   
    38    15    16 1   
    39    15    41 1   
    40    15    42 1   
    41    16    17 1   
    42    16    43 1   
    43    16    44 1   
    44    17    20 1   
    45    17    45 1   
    46    18    46 1   
    47    18    47 1   
    48    18    48 1   
    49    19    49 1   
    50    19    50 1   
    51    19    51 1   
    52    20    21 1   
    53    20    23 2   
    54    21    24 1   
    55    21    52 1   
    56    21    53 1   
    57    24    54 1   
@<TRIPOS>SUBSTRUCTURE
     1 1CA         1 TEMP              0 ****  ****    0 ROOT
