@<TRIPOS>MOLECULE
molecule
   54    57     1     0     0
SMALL
bcc


@<TRIPOS>ATOM
      1 C1           0.0000     0.0000     0.0000 c3         1 1CA      -0.065400
      2 C2           1.5270     0.0000     0.0000 c3         1 1CA      -0.179400
      3 C3           1.9830     0.0000     1.4470 c          1 1CA       0.570300
      4 C4           1.3670    -1.0020     2.3240 ce         1 1CA      -0.262200
      5 C5           0.1960    -1.5460     1.9950 c2         1 1CA      -0.041400
      6 C6          -0.3850    -2.5890     2.9320 c3         1 1CA      -0.051200
      7 C7          -1.8440    -2.2290     3.2210 c3         1 1CA      -0.074400
      8 C8          -2.6000    -2.1010     1.8950 c3         1 1CA      -0.065700
      9 C9          -2.0330    -0.9130     1.1060 c3         1 1CA      -0.051700
     10 C10         -0.5640    -1.1980     0.7660 c3         1 1CA      -0.027800
     11 C11         -2.8060    -0.6700    -0.1870 c3         1 1CA      -0.082400
     12 C12         -4.3120    -0.5020     0.0740 c3         1 1CA      -0.064400
     13 C13         -4.7830    -1.7570     0.7810 c3         1 1CA      -0.058000
     14 C14         -4.0760    -1.8000     2.1620 c3         1 1CA      -0.063700
     15 C15         -4.8550    -2.9020     2.8900 c3         1 1CA      -0.076400
     16 C16         -6.3270    -2.6130     2.4870 c3         1 1CA      -0.072400
     17 C17         -6.2630    -1.8240     1.1420 c3         1 1CA      -0.160700
     18 C18         -4.3950    -2.9900    -0.0380 c3         1 1CA      -0.101100
     19 C19         -0.5200    -2.4160    -0.1580 c3         1 1CA      -0.089100
     20 C20         -7.0400    -2.5500     0.0740 c          1 1CA       0.567100
     21 C21         -7.6280    -1.7840    -1.0830 c3         1 1CA       0.041400
     22 O3           2.8100     0.7870     1.8560 o          1 1CA      -0.523100
     23 O20         -7.1910    -3.7460     0.1450 o          1 1CA      -0.492100
     24 O21         -8.3120    -2.6870    -1.9540 oh         1 1CA      -0.583800
     25 H11         -0.3520     0.9130     0.4660 hc         1 1CA       0.051200
     26 H12         -0.3520    -0.0390    -1.0240 hc         1 1CA       0.051200
     27 H21          1.8940     0.8880    -0.5000 hc         1 1CA       0.069200
     28 H22          1.8940    -0.8880    -0.5000 hc         1 1CA       0.069200
     29 H4           1.8750    -1.3170     3.2280 ha         1 1CA       0.151000
     30 H61          0.1770    -2.5980     3.8580 hc         1 1CA       0.055700
     31 H62         -0.3380    -3.5650     2.4630 hc         1 1CA       0.055700
     32 H71         -1.8850    -1.2860     3.7530 hc         1 1CA       0.049200
     33 H72         -2.2970    -3.0100     3.8200 hc         1 1CA       0.049200
     34 H8          -2.5030    -3.0130     1.3190 hc         1 1CA       0.070700
     35 H9          -2.0860    -0.0230     1.7220 hc         1 1CA       0.057700
     36 H111        -2.6560    -1.5130    -0.8510 hc         1 1CA       0.048200
     37 H112        -2.4280     0.2290    -0.6590 hc         1 1CA       0.048200
     38 H121        -4.8380    -0.3890    -0.8660 hc         1 1CA       0.043200
     39 H122        -4.4810     0.3620     0.7050 hc         1 1CA       0.043200
     40 H14         -4.1870    -0.8520     2.6750 hc         1 1CA       0.059700
     41 H151        -4.5490    -3.8800     2.5400 hc         1 1CA       0.050700
     42 H152        -4.7290    -2.8140     3.9620 hc         1 1CA       0.050700
     43 H161        -6.8090    -2.0100     3.2480 hc         1 1CA       0.057700
     44 H162        -6.8630    -3.5440     2.3470 hc         1 1CA       0.057700
     45 H17         -6.6560    -0.8240     1.2800 hc         1 1CA       0.062700
     46 H181        -3.3160    -3.0370    -0.1290 hc         1 1CA       0.047367
     47 H182        -4.7550    -3.8820     0.4600 hc         1 1CA       0.047367
     48 H183        -4.8380    -2.9220    -1.0240 hc         1 1CA       0.047367
     49 H191         0.4980    -2.7820    -0.2260 hc         1 1CA       0.041367
     50 H192        -0.8690    -2.1340    -1.1440 hc         1 1CA       0.041367
     51 H193        -1.1570    -3.1960     0.2410 hc         1 1CA       0.041367
     52 H211        -6.8340    -1.2880    -1.6290 h1         1 1CA       0.043200
     53 H212        -8.3260    -1.0440    -0.7090 h1         1 1CA       0.043200
     54 HO          -8.9170    -2.2060    -2.4930 ho         1 1CA       0.403000
@<TRIPOS>BOND
     1     1     2 1   
     2     1    10 1   
     3     1    25 1   
     4     1    26 1   
     5     2     3 1   
     6     2    27 1   
     7     2    28 1   
     8     3     4 1   
     9     3    22 2   
    10     4     5 2   
    11     4    29 1   
    12     5     6 1   
    13     5    10 1   
    14     6     7 1   
    15     6    30 1   
    16     6    31 1   
    17     7     8 1   
    18     7    32 1   
    19     7    33 1   
    20     8     9 1   
    21     8    14 1   
    22     8    34 1   
    23     9    10 1   
    24     9    11 1   
    25     9    35 1   
    26    10    19 1   
    27    11    12 1   
    28    11    36 1   
    29    11    37 1   
    30    12    13 1   
    31    12    38 1   
    32    12    39 1   
    33    13    14 1   
    34    13    17 1   
    35    13    18 1   
    36    14    15 1   
    37    14    40 1   
    38    15    16 1   
    39    15    41 1   
    40    15    42 1   
    41    16    17 1   
    42    16    43 1   
    43    16    44 1   
    44    17    20 1   
    45    17    45 1   
    46    18    46 1   
    47    18    47 1   
    48    18    48 1   
    49    19    49 1   
    50    19    50 1   
    51    19    51 1   
    52    20    21 1   
    53    20    23 2   
    54    21    24 1   
    55    21    52 1   
    56    21    53 1   
    57    24    54 1   
@<TRIPOS>SUBSTRUCTURE
     1 1CA         1 TEMP              0 ****  ****    0 ROOT
