@<TRIPOS>MOLECULE
1CA
   54    57     1     0     0
SMALL
bcc


@<TRIPOS>ATOM
      1 C1          0.0350    0.0260    0.0550 c3        1 1CA     -0.070400
      2 C2          1.5360    0.1880    0.1200 c3        1 1CA     -0.182400
      3 C3          2.0300    0.1540    1.5370 c         1 1CA      0.569300
      4 C4          1.3310   -0.7840    2.4250 ce        1 1CA     -0.264200
      5 C5          0.2060   -1.4340    2.0790 c2        1 1CA     -0.029400
      6 C6         -0.3900   -2.4400    3.0060 c3        1 1CA     -0.054200
      7 C7         -1.8800   -2.2440    3.1810 c3        1 1CA     -0.072400
      8 C8         -2.5770   -2.2190    1.8320 c3        1 1CA     -0.050700
      9 C9         -1.9980   -1.0890    0.9650 c3        1 1CA     -0.048700
     10 C10        -0.4760   -1.2480    0.7460 c3        1 1CA     -0.014800
     11 C11        -2.7530   -0.9420   -0.3510 c3        1 1CA     -0.074400
     12 C12        -4.2610   -0.8280   -0.1860 c3        1 1CA     -0.069400
     13 C13        -4.7970   -1.9880    0.6350 c3        1 1CA     -0.038000
     14 C14        -4.0600   -1.9620    1.9960 c3        1 1CA     -0.061700
     15 C15        -4.8870   -2.8810    2.8850 c3        1 1CA     -0.072400
     16 C16        -6.3290   -2.6770    2.4100 c3        1 1CA     -0.075400
     17 C17        -6.2690   -1.8650    1.1030 c3        1 1CA     -0.160700
     18 C18        -4.6320   -3.2960   -0.1210 c3        1 1CA     -0.094100
     19 C19        -0.1480   -2.4550   -0.1300 c3        1 1CA     -0.086100
     20 C20        -7.2630   -2.3330    0.0800 c         1 1CA      0.545100
     21 C21        -7.7680   -1.2690   -0.8690 c3        1 1CA      0.029400
     22 O3          2.9800    0.8460    1.9200 o         1 1CA     -0.534100
     23 O20        -7.6910   -3.4890    0.0050 o         1 1CA     -0.532100
     24 O21        -8.3710   -1.8050   -2.0260 oh        1 1CA     -0.589800
     25 H11        -0.4490    0.9200    0.5310 hc        1 1CA      0.050200
     26 H12        -0.2770    0.0070   -1.0230 hc        1 1CA      0.050200
     27 H21         2.0430   -0.6420   -0.4420 hc        1 1CA      0.072200
     28 H22         1.8350    1.1550   -0.3650 hc        1 1CA      0.072200
     29 H4          1.8000   -0.9320    3.4120 ha        1 1CA      0.148000
     30 H61         0.1110   -2.3950    4.0090 hc        1 1CA      0.056200
     31 H62        -0.1940   -3.4630    2.5790 hc        1 1CA      0.056200
     32 H71        -2.0750   -1.2850    3.7290 hc        1 1CA      0.048200
     33 H72        -2.2980   -3.0780    3.8020 hc        1 1CA      0.048200
     34 H8         -2.4150   -3.2100    1.3280 hc        1 1CA      0.059700
     35 H9         -2.1410   -0.1300    1.5440 hc        1 1CA      0.051700
     36 H111       -2.3910   -0.0180   -0.8770 hc        1 1CA      0.045700
     37 H112       -2.5260   -1.8160   -1.0160 hc        1 1CA      0.045700
     38 H121       -4.5150    0.1410    0.3180 hc        1 1CA      0.043700
     39 H122       -4.7370   -0.8190   -1.2010 hc        1 1CA      0.043700
     40 H14        -4.1690   -0.9180    2.4160 hc        1 1CA      0.047700
     41 H151       -4.5740   -3.9470    2.7590 hc        1 1CA      0.048200
     42 H152       -4.7710   -2.6140    3.9630 hc        1 1CA      0.048200
     43 H161       -6.9250   -2.1240    3.1760 hc        1 1CA      0.057200
     44 H162       -6.8250   -3.6650    2.2310 hc        1 1CA      0.057200
     45 H17        -6.4830   -0.7830    1.3270 hc        1 1CA      0.064700
     46 H181       -5.1730   -3.2380   -1.0980 hc        1 1CA      0.045367
     47 H182       -3.5590   -3.5160   -0.3310 hc        1 1CA      0.045367
     48 H183       -5.0630   -4.1410    0.4690 hc        1 1CA      0.045367
     49 H191       -0.6350   -3.3770    0.2670 hc        1 1CA      0.041367
     50 H192        0.9570   -2.6200   -0.1530 hc        1 1CA      0.041367
     51 H193       -0.4990   -2.2870   -1.1760 hc        1 1CA      0.041367
     52 H211       -8.5080   -0.6230   -0.3200 h1        1 1CA      0.068200
     53 H212       -6.9190   -0.6330   -1.2410 h1        1 1CA      0.068200
     54 HO         -8.8620   -2.5970   -1.7640 ho        1 1CA      0.420000
@<TRIPOS>BOND
     1    1    2 1   
     2    1   10 1   
     3    1   25 1   
     4    1   26 1   
     5    2    3 1   
     6    2   27 1   
     7    2   28 1   
     8    3    4 1   
     9    3   22 2   
    10    4    5 2   
    11    4   29 1   
    12    5    6 1   
    13    5   10 1   
    14    6    7 1   
    15    6   30 1   
    16    6   31 1   
    17    7    8 1   
    18    7   32 1   
    19    7   33 1   
    20    8    9 1   
    21    8   14 1   
    22    8   34 1   
    23    9   10 1   
    24    9   11 1   
    25    9   35 1   
    26   10   19 1   
    27   11   12 1   
    28   11   36 1   
    29   11   37 1   
    30   12   13 1   
    31   12   38 1   
    32   12   39 1   
    33   13   14 1   
    34   13   17 1   
    35   13   18 1   
    36   14   15 1   
    37   14   40 1   
    38   15   16 1   
    39   15   41 1   
    40   15   42 1   
    41   16   17 1   
    42   16   43 1   
    43   16   44 1   
    44   17   20 1   
    45   17   45 1   
    46   18   46 1   
    47   18   47 1   
    48   18   48 1   
    49   19   49 1   
    50   19   50 1   
    51   19   51 1   
    52   20   21 1   
    53   20   23 2   
    54   21   24 1   
    55   21   52 1   
    56   21   53 1   
    57   24   54 1   
@<TRIPOS>SUBSTRUCTURE
     1 1CA         1 TEMP              0 ****  ****    0 ROOT
