@<TRIPOS>MOLECULE
molecule
   18    18     1     0     0
SMALL
bcc


@<TRIPOS>ATOM
      1 C2           0.0000     0.0000     0.0000 c3         1 1CB      -0.105400
      2 C1           1.5390     0.0000     0.0000 c3         1 1CB       0.089500
      3 C4           1.9790     0.0000     1.4780 c3         1 1CB      -0.105400
      4 C5           0.7690     0.6020     2.2350 c3         1 1CB      -0.079400
      5 C3          -0.4410    -0.0010     1.4790 c3         1 1CB      -0.079400
      6 N2           2.0420    -1.2040    -0.6760 nz         1 1CB      -0.807600
      7 H21         -0.3700    -0.8890    -0.4960 hc         1 1CB       0.073200
      8 H22         -0.3700     0.8890    -0.4960 hc         1 1CB       0.073200
      9 H1           1.9080     0.8910    -0.4940 hx         1 1CB       0.119700
     10 H41          2.1700    -1.0120     1.8150 hc         1 1CB       0.073200
     11 H42          2.8550     0.6230     1.6110 hc         1 1CB       0.073200
     12 H51          0.7690     0.2830     3.2710 hc         1 1CB       0.077700
     13 H52          0.7690     1.6820     2.1580 hc         1 1CB       0.077700
     14 H31         -0.6320    -1.0120     1.8150 hc         1 1CB       0.077700
     15 H32         -1.3180     0.6220     1.6110 hc         1 1CB       0.077700
     16 HN21         3.0420    -1.2210    -0.6250 hn         1 1CB       0.454467
     17 HN22         1.6710    -2.0180    -0.2270 hn         1 1CB       0.454467
     18 H23          1.7570    -1.1920    -1.6350 hn         1 1CB       0.454467
@<TRIPOS>BOND
     1     1     2 1   
     2     1     5 1   
     3     1     7 1   
     4     1     8 1   
     5     2     3 1   
     6     2     6 1   
     7     2     9 1   
     8     3     4 1   
     9     3    10 1   
    10     3    11 1   
    11     4     5 1   
    12     4    12 1   
    13     4    13 1   
    14     5    14 1   
    15     5    15 1   
    16     6    16 1   
    17     6    17 1   
    18    18     6 1   
@<TRIPOS>SUBSTRUCTURE
     1 1CB         1 TEMP              0 ****  ****    0 ROOT
