@<TRIPOS>MOLECULE
1CB
   18    18     1     0     0
SMALL
bcc


@<TRIPOS>ATOM
      1 C2           0.1360     0.4360    -0.1220 c3         1 1CB      -0.108400
      2 C1           1.6230     0.0430    -0.0780 c3         1 1CB       0.117500
      3 C4           2.0600     0.3120     1.3730 c3         1 1CB      -0.108400
      4 C5           0.8060     0.2000     2.2290 c3         1 1CB      -0.096400
      5 C3          -0.3960     0.2780     1.2960 c3         1 1CB      -0.096400
      6 N2           1.8210    -1.4030    -0.4530 nz         1 1CB      -0.841600
      7 H21         -0.4580    -0.1600    -0.8590 hc         1 1CB       0.086200
      8 H22          0.0790     1.5100    -0.4440 hc         1 1CB       0.086200
      9 H1           2.2320     0.6430    -0.8130 hx         1 1CB       0.113700
     10 H41          2.8690    -0.3750     1.7260 hc         1 1CB       0.086200
     11 H42          2.4700     1.3550     1.4140 hc         1 1CB       0.086200
     12 H51          0.7790     1.0260     2.9860 hc         1 1CB       0.074700
     13 H52          0.8010    -0.7640     2.7990 hc         1 1CB       0.074700
     14 H31         -1.0520     1.1460     1.5620 hc         1 1CB       0.074700
     15 H32         -1.0230    -0.6450     1.3830 hc         1 1CB       0.074700
     16 HN21         2.8120    -1.6490    -0.3850 hn         1 1CB       0.458800
     17 HN22         1.2850    -1.9970     0.1880 hn         1 1CB       0.458800
     18 H23          1.4930    -1.5630    -1.4090 hn         1 1CB       0.458800
@<TRIPOS>BOND
     1     1     2 1   
     2     1     5 1   
     3     1     7 1   
     4     1     8 1   
     5     2     3 1   
     6     2     6 1   
     7     2     9 1   
     8     3     4 1   
     9     3    10 1   
    10     3    11 1   
    11     4     5 1   
    12     4    12 1   
    13     4    13 1   
    14     5    14 1   
    15     5    15 1   
    16     6    16 1   
    17     6    17 1   
    18     6    18 1   
@<TRIPOS>SUBSTRUCTURE
     1 1CB         1 TEMP              0 ****  ****    0 ROOT
