@<TRIPOS>MOLECULE
1CD
   51    56     1     0     0
SMALL
bcc


@<TRIPOS>ATOM
      1 C1         -0.0960    0.9070   -0.1420 c3        1 1CD     -0.092100
      2 N2          2.1150    0.1870    0.7740 n3        1 1CD     -0.776600
      3 C3          3.3790   -0.2190    0.1740 c3        1 1CD      0.155800
      4 C4          3.1550   -0.2250   -1.3560 c3        1 1CD      0.140100
      5 C5          1.9710    0.7280   -1.5830 c3        1 1CD     -0.088400
      6 C6          1.4180    1.0660   -0.1770 c3        1 1CD      0.196500
      7 C7          3.5690   -3.6660   -1.1570 ca        1 1CD      0.048400
      8 C8          3.6730   -2.4830   -1.9470 ca        1 1CD      0.182100
      9 C9          4.4850   -4.7380   -1.4230 ca        1 1CD      0.073600
     10 N10         2.6290   -3.7570   -0.1320 nc        1 1CD     -0.501100
     11 C11         4.6620   -2.3640   -2.9210 ca        1 1CD     -0.202000
     12 O12         2.6990   -1.5100   -1.8160 os        1 1CD     -0.321900
     13 C13         5.4710   -4.5940   -2.4270 ca        1 1CD     -0.192000
     14 N14         4.3830   -5.9010   -0.6660 n         1 1CD     -0.442100
     15 C15         2.5850   -4.8250    0.6240 cd        1 1CD      0.445900
     16 C16         5.5500   -3.4180   -3.1530 ca        1 1CD     -0.061000
     17 C17         3.4540   -6.0280    0.3720 c         1 1CD      0.577200
     18 C18         1.7040   -4.8510    1.8010 ca        1 1CD     -0.153900
     19 O19         3.4080   -7.1030    0.9930 o         1 1CD     -0.612500
     20 C20         1.4440   -3.6780    2.5240 ca        1 1CD      0.002800
     21 C21         1.0840   -6.0290    2.2540 ca        1 1CD     -0.040000
     22 C22         0.5960   -3.6960    3.6770 ca        1 1CD     -0.220600
     23 N23         2.0080   -2.3690    2.3520 na        1 1CD     -0.086800
     24 C24         0.2540   -6.0360    3.3730 ca        1 1CD     -0.182000
     25 C25         0.5520   -2.2960    4.1780 c         1 1CD      0.680100
     26 C26         0.0000   -4.8660    4.1020 ca        1 1CD     -0.012000
     27 N27         1.4850   -1.5430    3.3480 n         1 1CD     -0.358100
     28 C28         1.1130   -0.1690    3.0240 c3        1 1CD      0.056000
     29 O29        -0.0590   -1.8180    5.1370 o         1 1CD     -0.583500
     30 C30         2.1440    0.5950    2.1570 c3        1 1CD      0.187800
     31 H11A       -0.3950   -0.1510   -0.3340 hc        1 1CD      0.043033
     32 H12        -0.5010    1.2190    0.8500 hc        1 1CD      0.043033
     33 H13A       -0.5440    1.5570   -0.9320 hc        1 1CD      0.043033
     34 H32         4.2200    0.4900    0.4180 h1        1 1CD      0.054200
     35 H4          4.0790    0.0740   -1.9100 h1        1 1CD      0.054700
     36 H51         1.1890    0.2320   -2.2090 hc        1 1CD      0.067700
     37 H52         2.3150    1.6540   -2.1010 hc        1 1CD      0.067700
     38 H6          1.6540    2.1510    0.0490 h1        1 1CD      0.023700
     39 H11         4.7290   -1.4430   -3.5190 ha        1 1CD      0.148000
     40 H13         6.1760   -5.4140   -2.6300 ha        1 1CD      0.144000
     41 H14         5.0060   -6.6570   -0.8520 hn        1 1CD      0.337500
     42 H16         6.3220   -3.3110   -3.9320 ha        1 1CD      0.142000
     43 H21         1.2700   -6.9740    1.7140 ha        1 1CD      0.163000
     44 H23         1.8310   -2.0120    1.4180 hn        1 1CD      0.273700
     45 H24        -0.2060   -6.9820    3.6960 ha        1 1CD      0.143000
     46 H26        -0.6520   -4.8790    4.9890 ha        1 1CD      0.153000
     47 H281        0.1030   -0.1250    2.5240 h1        1 1CD      0.061200
     48 H282        1.0410    0.3540    4.0200 h1        1 1CD      0.061200
     49 H301        1.8890    1.6900    2.2670 h1        1 1CD      0.051700
     50 H302        3.1720    0.4360    2.5890 h1        1 1CD      0.051700
     51 H31         3.6620   -1.2400    0.5420 h1        1 1CD      0.054200
@<TRIPOS>BOND
     1    1    6 1   
     2    1   31 1   
     3    1   32 1   
     4    1   33 1   
     5    2    3 1   
     6    2    6 1   
     7    2   30 1   
     8    3    4 1   
     9    3   34 1   
    10    3   51 1   
    11    4    5 1   
    12    4   12 1   
    13    4   35 1   
    14    5    6 1   
    15    5   36 1   
    16    5   37 1   
    17    6   38 1   
    18    7    8 ar  
    19    7    9 ar  
    20    7   10 1   
    21    8   11 ar  
    22    8   12 1   
    23    9   13 ar  
    24    9   14 1   
    25   10   15 2   
    26   11   16 ar  
    27   11   39 1   
    28   13   16 ar  
    29   13   40 1   
    30   14   17 1   
    31   14   41 1   
    32   15   17 1   
    33   15   18 1   
    34   16   42 1   
    35   17   19 2   
    36   18   20 ar  
    37   18   21 ar  
    38   20   22 ar  
    39   20   23 1   
    40   21   24 ar  
    41   21   43 1   
    42   22   25 1   
    43   22   26 ar  
    44   23   27 1   
    45   23   44 1   
    46   24   26 ar  
    47   24   45 1   
    48   25   27 1   
    49   25   29 2   
    50   26   46 1   
    51   27   28 1   
    52   28   30 1   
    53   28   47 1   
    54   28   48 1   
    55   30   49 1   
    56   30   50 1   
@<TRIPOS>SUBSTRUCTURE
     1 1CD         1 TEMP              0 ****  ****    0 ROOT
