@<TRIPOS>MOLECULE
molecule
   32    35     1     0     0
SMALL
bcc


@<TRIPOS>ATOM
      1 O20          0.0000     0.0000     0.0000 o          1 1CE      -0.609500
      2 C12          1.2180     0.0000     0.0000 c          1 1CE       0.719100
      3 N7           1.9060     0.0000     1.1590 n          1 1CE      -0.380300
      4 C6           1.1840    -0.0010     2.4340 c3         1 1CE       0.080700
      5 C3           0.9380    -1.4220     2.8710 cc         1 1CE       0.307800
      6 N2          -0.0580    -2.1910     2.5070 nd         1 1CE      -0.337000
      7 N4           1.7030    -2.1500     3.7070 na         1 1CE      -0.121400
      8 N5           1.1460    -3.3080     3.8190 nc         1 1CE      -0.216800
      9 N1           0.0830    -3.3300     3.0920 nd         1 1CE      -0.028000
     10 C11          1.9490    -0.0060    -1.2290 cc         1 1CE      -0.229600
     11 C13          1.4490    -0.0110    -2.5970 cc         1 1CE      -0.038300
     12 C16         -0.0360    -0.0120    -2.9330 c3         1 1CE      -0.013100
     13 C17         -0.2130     0.4110    -4.3920 c3         1 1CE      -0.084400
     14 C18          0.7090    -0.4360    -5.2750 c3         1 1CE      -0.079400
     15 C19          2.1600    -0.0220    -5.0210 c3         1 1CE       0.002900
     16 C14          2.4120    -0.0150    -3.5240 cd         1 1CE      -0.048400
     17 S15          4.0050    -0.0130    -2.7860 ss         1 1CE      -0.069800
     18 C10          3.3350    -0.0050    -1.1620 cd         1 1CE       0.244300
     19 N9           3.9440     0.0010     0.0440 nd         1 1CE      -0.608100
     20 C8           3.2640     0.0010     1.1520 cc         1 1CE       0.490800
     21 H6           0.2360     0.5100     2.3130 h1         1 1CE       0.093200
     22 H6A          1.7760     0.5100     3.1840 h1         1 1CE       0.093200
     23 HN4          2.5430    -1.8480     4.1590 hn         1 1CE       0.339700
     24 H16         -0.5540     0.6870    -2.2880 hc         1 1CE       0.070700
     25 H16A        -0.4380    -1.0090    -2.7940 hc         1 1CE       0.070700
     26 H17         -1.2430     0.2550    -4.6910 hc         1 1CE       0.046700
     27 H17A         0.0460     1.4580    -4.4990 hc         1 1CE       0.046700
     28 H18          0.4630    -0.2710    -6.3170 hc         1 1CE       0.048200
     29 H18A         0.5830    -1.4830    -5.0290 hc         1 1CE       0.048200
     30 H19          2.3290     0.9710    -5.4210 hc         1 1CE       0.054200
     31 H19A         2.8280    -0.7300    -5.4980 hc         1 1CE       0.054200
     32 H8           3.7960     0.0010     2.0960 h5         1 1CE       0.052800
@<TRIPOS>BOND
     1     1     2 2
     2     2     3 1
     3     2    10 1
     4     3     4 1
     5     3    20 1
     6     4     5 1
     7     5     6 2
     8     5     7 1
     9     6     9 1
    10     7     8 1
    11     8     9 2
    12    10    11 1
    13    10    18 2
    14    11    12 1
    15    11    16 2
    16    12    13 1
    17    13    14 1
    18    14    15 1
    19    15    16 1
    20    16    17 1
    21    17    18 1
    22    18    19 1
    23    19    20 2
    24     4    21 1
    25     4    22 1
    26     7    23 1
    27    12    24 1
    28    12    25 1
    29    13    26 1
    30    13    27 1
    31    14    28 1
    32    14    29 1
    33    15    30 1
    34    15    31 1
    35    20    32 1
@<TRIPOS>SUBSTRUCTURE
     1 1CE         1 TEMP              0 ****  ****    0 ROOT
