@<TRIPOS>MOLECULE
1CE
   32    35     1     0     0
SMALL
bcc


@<TRIPOS>ATOM
      1 O20          0.0570     0.2000    -0.1260 o          1 1CE      -0.659500
      2 C12          1.3000     0.0960    -0.1600 c          1 1CE       0.741100
      3 N7           2.0240     0.0480     1.0630 n          1 1CE      -0.403300
      4 C6           1.3170     0.0470     2.3220 c3         1 1CE       0.070700
      5 C3           0.7990     1.3950     2.7190 cc         1 1CE       0.340800
      6 N2           1.1100     2.1640     3.8090 nd         1 1CE      -0.366000
      7 N4          -0.1680     2.1300     2.0110 na         1 1CE      -0.154400
      8 N5          -0.3920     3.2650     2.6800 nc         1 1CE      -0.188800
      9 N1           0.3620     3.2590     3.7230 nd         1 1CE      -0.054000
     10 C11          2.1190     0.0290    -1.3610 cc         1 1CE      -0.229600
     11 C13          1.6970     0.0170    -2.7220 cc         1 1CE      -0.021300
     12 C16          0.2960     0.0210    -3.1870 c3         1 1CE      -0.023100
     13 C17          0.2030     0.3600    -4.6640 c3         1 1CE      -0.076400
     14 C18          1.2440    -0.3820    -5.4760 c3         1 1CE      -0.073400
     15 C19          2.6570    -0.0210    -5.0460 c3         1 1CE      -0.001100
     16 C14          2.7880    -0.0270    -3.5770 cd         1 1CE      -0.145400
     17 S15          4.2520    -0.0600    -2.7590 ss         1 1CE       0.137200
     18 C10          3.5320    -0.0140    -1.2500 cd         1 1CE       0.134300
     19 N9           4.1870    -0.0110    -0.0290 nd         1 1CE      -0.571100
     20 C8           3.4240     0.0250     1.0420 cc         1 1CE       0.489800
     21 H6           0.4310    -0.6520     2.2290 h1         1 1CE       0.097700
     22 H6A          1.9970    -0.3330     3.1380 h1         1 1CE       0.097700
     23 HN4         -0.6250     1.8800     1.1570 hn         1 1CE       0.361700
     24 H16         -0.1460    -0.9960    -3.0000 hc         1 1CE       0.068700
     25 H16A        -0.3040     0.7520    -2.5800 hc         1 1CE       0.068700
     26 H17          0.3410     1.4650    -4.8030 hc         1 1CE       0.046700
     27 H17A        -0.8210     0.0990    -5.0370 hc         1 1CE       0.046700
     28 H18          1.0900    -1.4860    -5.3570 hc         1 1CE       0.046200
     29 H18A         1.1200    -0.1370    -6.5630 hc         1 1CE       0.046200
     30 H19          2.9120     1.0040    -5.4350 hc         1 1CE       0.052200
     31 H19A         3.3820    -0.7430    -5.5080 hc         1 1CE       0.052200
     32 H8           3.9310     0.0340     2.0320 h5         1 1CE       0.066800
@<TRIPOS>BOND
     1     1     2 2   
     2     2     3 1   
     3     2    10 1   
     4     3     4 1   
     5     3    20 1   
     6     4     5 1   
     7     4    21 1   
     8     4    22 1   
     9     5     6 2   
    10     5     7 1   
    11     6     9 1   
    12     7     8 1   
    13     7    23 1   
    14     8     9 2   
    15    10    11 1   
    16    10    18 2   
    17    11    12 1   
    18    11    16 2   
    19    12    13 1   
    20    12    24 1   
    21    12    25 1   
    22    13    14 1   
    23    13    26 1   
    24    13    27 1   
    25    14    15 1   
    26    14    28 1   
    27    14    29 1   
    28    15    16 1   
    29    15    30 1   
    30    15    31 1   
    31    16    17 1   
    32    17    18 1   
    33    18    19 1   
    34    19    20 2   
    35    20    32 1   
@<TRIPOS>SUBSTRUCTURE
     1 1CE         1 TEMP              0 ****  ****    0 ROOT
