@<TRIPOS>MOLECULE
1CF
   30    30     1     0     0
SMALL
bcc


@<TRIPOS>ATOM
      1 C4          0.0480   -0.0850    0.0270 c3        1 1CF      0.119100
      2 C5          1.5860   -0.0360    0.0480 c3        1 1CF      0.157100
      3 C6          2.1910   -1.3270   -0.4660 c3        1 1CF     -0.088100
      4 C11         3.9250    1.0180    4.8370 c3        1 1CF      0.132400
      5 C12         3.5510    1.3540    3.3970 c3        1 1CF      0.089400
      6 C3         -0.5270    1.1590    0.7290 c3        1 1CF      0.110100
      7 O11         3.8500   -0.3690    5.0880 oh        1 1CF     -0.598800
      8 C1          1.6150    1.3130    2.0100 c3        1 1CF      0.309900
      9 C2          0.0800    1.2820    2.1330 c3        1 1CF      0.085100
     10 O2         -0.4050    2.4910    2.6890 oh        1 1CF     -0.606800
     11 O3         -1.9300    0.9740    0.7980 oh        1 1CF     -0.606800
     12 O4         -0.3740   -1.2780    0.6620 oh        1 1CF     -0.586800
     13 O5          2.1130    0.1520    1.3640 os        1 1CF     -0.428600
     14 O1          2.1300    1.1960    3.3190 os        1 1CF     -0.433600
     15 H4         -0.3050   -0.0920   -1.0430 h1        1 1CF      0.054700
     16 H5          1.9050    0.8390   -0.5900 h1        1 1CF      0.035700
     17 H62         3.3040   -1.2740   -0.4150 hc        1 1CF      0.055033
     18 H61         1.8400   -2.1850    0.1570 hc        1 1CF      0.055033
     19 H63         1.8720   -1.4870   -1.5230 hc        1 1CF      0.055033
     20 H11         3.2590    1.5740    5.5480 h1        1 1CF      0.052200
     21 H12         4.9980    1.2910    5.0230 h1        1 1CF      0.052200
     22 H21         4.0530    0.6540    2.6800 h1        1 1CF      0.052200
     23 H22         3.8160    2.4150    3.1520 h1        1 1CF      0.052200
     24 H3         -0.2990    2.0840    0.1320 h1        1 1CF      0.056700
     25 H6          2.9720   -0.6600    4.8080 ho        1 1CF      0.416000
     26 H1          1.9780    2.2460    1.4970 h2        1 1CF      0.046700
     27 H2         -0.2310    0.4030    2.7640 h1        1 1CF      0.085700
     28 HO2        -0.0160    2.5620    3.5710 ho        1 1CF      0.425000
     29 HO3        -2.2740    1.6720    1.3710 ho        1 1CF      0.429000
     30 HO4        -1.3340   -1.2140    0.7610 ho        1 1CF      0.422000
@<TRIPOS>BOND
     1    1    2 1   
     2    1    6 1   
     3    1   12 1   
     4    1   15 1   
     5    2    3 1   
     6    2   13 1   
     7    2   16 1   
     8    3   17 1   
     9    3   18 1   
    10    3   19 1   
    11    4    5 1   
    12    4    7 1   
    13    4   20 1   
    14    4   21 1   
    15    5   14 1   
    16    5   22 1   
    17    5   23 1   
    18    6    9 1   
    19    6   11 1   
    20    6   24 1   
    21    7   25 1   
    22    8    9 1   
    23    8   13 1   
    24    8   14 1   
    25    8   26 1   
    26    9   10 1   
    27    9   27 1   
    28   10   28 1   
    29   11   29 1   
    30   12   30 1   
@<TRIPOS>SUBSTRUCTURE
     1 1CF         1 TEMP              0 ****  ****    0 ROOT
