@<TRIPOS>MOLECULE
molecule
   30    30     1     0     0
SMALL
bcc


@<TRIPOS>ATOM
      1 C4           0.0000     0.0000     0.0000 c3         1 1CF       0.101100
      2 C5           1.5310     0.0000     0.0000 c3         1 1CF       0.153100
      3 C6           2.0400    -1.2500    -0.7200 c3         1 1CF      -0.084100
      4 C11          4.0400     1.1230     4.9310 c3         1 1CF       0.143400
      5 C12          3.5670     1.2360     3.4790 c3         1 1CF       0.141400
      6 C3          -0.5040     1.2220     0.7730 c3         1 1CF       0.119100
      7 O11          3.8070    -0.2040     5.4060 oh         1 1CF      -0.595800
      8 C1           1.6030     1.1450     2.1090 c3         1 1CF       0.341900
      9 C2           0.0750     1.1910     2.1910 c3         1 1CF       0.127100
     10 O2          -0.3300     2.3640     2.9000 oh         1 1CF      -0.602800
     11 O3          -1.9310     1.1920     0.8400 oh         1 1CF      -0.592800
     12 O4          -0.4790    -1.1910     0.6250 oh         1 1CF      -0.575800
     13 O5           2.0050     0.0000     1.3480 os         1 1CF      -0.428600
     14 O1           2.1500     1.0580     3.4260 os         1 1CF      -0.387600
     15 H4          -0.3590     0.0470    -1.0210 h1         1 1CF       0.038700
     16 H5           1.8900     0.8870    -0.5080 h1         1 1CF       0.034700
     17 H62          1.8210    -2.1260    -0.1210 hc         1 1CF       0.050033
     18 H61          3.1110    -1.1710    -0.8660 hc         1 1CF       0.050033
     19 H63          1.5500    -1.3380    -1.6810 hc         1 1CF       0.050033
     20 H11          3.4930     1.8280     5.5450 h1         1 1CF       0.027700
     21 H12          5.0990     1.3440     4.9830 h1         1 1CF       0.027700
     22 H21          3.8230     2.2140     3.0910 h1         1 1CF       0.040200
     23 H22          4.0490     0.4720     2.8820 h1         1 1CF       0.040200
     24 H3          -0.1790     2.1260     0.2710 h1         1 1CF       0.043700
     25 H6           4.1540    -0.2920     6.2790 ho         1 1CF       0.398000
     26 H1           1.9630     2.0430     1.6220 h2         1 1CF       0.027700
     27 H2          -0.2840     0.3090     2.7070 h1         1 1CF       0.088700
     28 HO2         -0.8710     2.1180     3.6320 ho         1 1CF       0.416000
     29 HO3         -2.2850     1.8950     0.3200 ho         1 1CF       0.404000
     30 HO4         -1.1450    -1.5840     0.0860 ho         1 1CF       0.404000
@<TRIPOS>BOND
     1     7     4 1   
     2     4     5 1   
     3     5    14 1   
     4    14     8 1   
     5     8    13 1   
     6     8     9 1   
     7    13     2 1   
     8     2     3 1   
     9     2     1 1   
    10    10     9 1   
    11     9     6 1   
    12     6     1 1   
    13     6    11 1   
    14     1    12 1   
    15     1    15 1   
    16     2    16 1   
    17     3    17 1   
    18     3    18 1   
    19     3    19 1   
    20     4    20 1   
    21     4    21 1   
    22     5    22 1   
    23     5    23 1   
    24     6    24 1   
    25     7    25 1   
    26     8    26 1   
    27     9    27 1   
    28    10    28 1   
    29    11    29 1   
    30    12    30 1   
@<TRIPOS>SUBSTRUCTURE
     1 1CF         1 TEMP              0 ****  ****    0 ROOT
