@<TRIPOS>MOLECULE
1CG
   53    54     1     0     0
SMALL
bcc


@<TRIPOS>ATOM
      1 C4          1.8840    0.9310   -0.2310 c3        1 1CG     -0.043000
      2 C5          1.9860    0.3400   -1.6190 c2        1 1CG      0.229000
      3 C6          3.2300    0.6540    0.4010 c2        1 1CG     -0.115000
      4 C13         2.7190   -3.0820   -2.1270 c2        1 1CG      0.042000
      5 C15         1.4530   -4.7490   -4.5130 c3        1 1CG     -0.227000
      6 C17        -4.0170   -1.8570   -4.9350 c2        1 1CG     -0.159000
      7 C20         1.8690   -6.1220   -4.1550 c2        1 1CG     -0.172000
      8 C22        -2.4330   -1.9700   -1.6080 c1        1 1CG      0.064000
      9 C28         3.6260   -2.5900   -0.2100 c2        1 1CG     -0.095000
     10 O26        -4.5380   -2.2640    0.2940 o         1 1CG     -0.237500
     11 C23        -3.5970   -1.6300    0.6560 c1        1 1CG      0.464000
     12 O25        -2.7020   -0.9850    1.1060 o         1 1CG     -0.237500
     13 O24        -1.3020   -2.0080   -2.0680 o         1 1CG     -0.420000
     14 C18        -3.8310   -2.1920   -3.6910 c1        1 1CG     -0.002000
     15 C16         2.5770   -3.7390   -4.5330 c1        1 1CG      0.282000
     16 C19         1.8810   -7.1350   -5.0180 c2        1 1CG     -0.160000
     17 C14         0.7250   -3.9700   -3.3880 c3        1 1CG     -0.122000
     18 C12         1.9090   -2.9430   -3.3440 c3        1 1CG     -0.828000
     19 S9          1.5370   -1.2990   -3.7470 s6        1 1CG      2.780000
     20 O10         2.6350   -0.5940   -4.2150 o         1 1CG     -0.848000
     21 O11         0.3640   -1.2730   -4.4870 o         1 1CG     -0.848000
     22 N8          1.1720   -0.5010   -2.2060 n3        1 1CG     -0.596000
     23 C3          0.7370    0.4090    0.5470 c2        1 1CG     -0.306000
     24 C2         -0.3570    1.1290    0.8680 c2        1 1CG      0.079000
     25 F7         -0.5520    2.4000    0.4760 f         1 1CG     -0.103000
     26 C1          3.5340   -0.5160    0.8890 c1        1 1CG     -0.105000
     27 O30         2.7560   -4.2990   -1.4040 os        1 1CG     -0.073000
     28 C29         3.3240   -3.9540   -0.1790 c2        1 1CG     -0.003000
     29 C34         3.4690   -4.8190    0.9970 c3        1 1CG     -0.078000
     30 C33         3.7300   -3.9710    2.2020 c2        1 1CG     -0.131000
     31 C32         3.8460   -2.6300    2.2200 c2        1 1CG     -0.121000
     32 C31         3.7400   -1.8110    1.0200 c2        1 1CG      0.077000
     33 N27         3.3080   -2.0790   -1.4700 n2        1 1CG     -0.183000
     34 H1          1.7740    2.0520   -0.3710 hc        1 1CG      0.166000
     35 H2          3.9510    1.4880    0.3630 ha        1 1CG      0.176000
     36 H3         -4.3610   -0.8500   -5.2230 ha        1 1CG      0.188500
     37 H4          0.8930   -4.7360   -5.4880 hc        1 1CG      0.168000
     38 H6          2.1990   -8.1440   -4.7210 ha        1 1CG      0.130500
     39 H7         -3.8400   -2.5680   -5.7580 ha        1 1CG      0.188500
     40 H8          1.5830   -7.0330   -6.0710 ha        1 1CG      0.130500
     41 H9          2.1750   -6.2510   -3.1020 ha        1 1CG      0.137000
     42 H10         0.5920   -4.5350   -2.4410 hc        1 1CG      0.138500
     43 H11        -0.2380   -3.4990   -3.6900 hc        1 1CG      0.138500
     44 H12         2.9070    0.6480   -2.1890 h4        1 1CG      0.219000
     45 H13         0.8290   -0.6210    0.9280 ha        1 1CG      0.166000
     46 H14        -1.1890    0.7150    1.4740 h4        1 1CG      0.189000
     47 H15         2.5420   -5.4370    1.1540 hc        1 1CG      0.139000
     48 H16         4.3270   -5.5360    0.8480 hc        1 1CG      0.139000
     49 H17         3.8300   -4.5480    3.1380 ha        1 1CG      0.157000
     50 H18         4.0350   -2.0900    3.1620 ha        1 1CG      0.162000
     51 N21        -3.5910   -2.4300   -2.4730 n3        1 1CG     -0.105000
     52 H82         0.3220   -0.7680   -1.7200 hn        1 1CG      0.301000
     53 H212       -4.3380   -2.8120   -1.9030 hn        1 1CG      0.265000
@<TRIPOS>BOND
     1    1    2 1
     2    1    3 1
     3    1   23 1
     4    1   34 1
     5    2   22 1
     6    2   44 1
     7    3   26 1
     8    3   35 1
     9    4   18 1
    10    4   27 1
    11    4   33 1
    12    5    7 1
    13    5   15 1
    14    5   17 1
    15    5   37 1
    16    6   14 1
    17    6   36 1
    18    6   39 1
    19    7   16 1
    20    7   41 1
    21    8   13 1
    22    8   51 1
    23    9   28 1
    24    9   32 1
    25    9   33 1
    26   10   11 1
    27   11   12 1
    28   14   51 1
    29   15   18 1
    30   16   38 1
    31   16   40 1
    32   17   18 1
    33   17   42 1
    34   17   43 1
    35   18   19 1
    36   19   20 1
    37   19   21 1
    38   19   22 1
    39   22   52 1
    40   23   24 1
    41   23   45 1
    42   24   25 1
    43   24   46 1
    44   26   32 1
    45   27   28 1
    46   28   29 1
    47   29   30 1
    48   29   47 1
    49   29   48 1
    50   30   31 1
    51   30   49 1
    52   31   32 1
    53   31   50 1
    54   51   53 1
@<TRIPOS>SUBSTRUCTURE
     1 1CG         1 TEMP              0 ****  ****    0 ROOT
