@<TRIPOS>MOLECULE
1CH
   46    48     1     0     0
SMALL
bcc


@<TRIPOS>ATOM
      1 O17          2.4350     2.0400    -0.7320 o          1 1CH      -0.764300
      2 C15          3.4900     1.9530    -0.0830 c          1 1CH       0.928600
      3 O16          4.6230     2.4540    -0.3220 o          1 1CH      -0.764300
      4 C14          3.4060     1.0500     1.2380 c3         1 1CH      -0.048500
      5 C18          2.2800     1.5850     2.1110 c3         1 1CH      -0.052100
      6 C19          1.9710     0.7240     3.2820 ca         1 1CH      -0.103300
      7 C24          2.2970     1.1410     4.5780 ca         1 1CH      -0.126500
      8 C23          1.9760     0.3420     5.6750 ca         1 1CH      -0.125500
      9 C22          1.3280    -0.8780     5.4870 ca         1 1CH      -0.130000
     10 C21          0.9980    -1.2980     4.1980 ca         1 1CH      -0.125500
     11 C20          1.3170    -0.5010     3.1000 ca         1 1CH      -0.126500
     12 N13          4.7380     1.0600     1.9350 ny         1 1CH      -0.722000
     13 C10          5.3270    -0.2830     2.1500 ce         1 1CH       0.577800
     14 N9           5.5340    -0.6460     3.3780 n2         1 1CH      -0.574900
     15 C8           6.1170    -1.9570     3.6630 c3         1 1CH       0.148200
     16 C12          7.6420    -1.8380     3.8430 c3         1 1CH      -0.088100
     17 C11          5.5320    -2.4940     4.9820 c3         1 1CH      -0.088100
     18 C7           5.8290    -3.0070     2.5640 c3         1 1CH      -0.068100
     19 C2           5.9200    -2.4540     1.1870 ca         1 1CH      -0.046300
     20 C3           5.6450    -1.0900     0.9500 ca         1 1CH      -0.205900
     21 C4           5.7230    -0.5770    -0.3470 ca         1 1CH      -0.090000
     22 C5           6.0590    -1.4210    -1.4070 ca         1 1CH      -0.127000
     23 C6           6.3190    -2.7710    -1.1780 ca         1 1CH      -0.094000
     24 C1           6.2510    -3.2860     0.1160 ca         1 1CH      -0.138000
     25 H2           3.1820    -0.0030     0.9120 hx         1 1CH       0.100700
     26 H3           2.5110     2.6330     2.4420 hc         1 1CH       0.091200
     27 H4           1.3790     1.6520     1.4320 hc         1 1CH       0.091200
     28 H5           2.7950     2.1090     4.7340 ha         1 1CH       0.134000
     29 H6           2.2320     0.6790     6.6900 ha         1 1CH       0.133500
     30 H7           1.0710    -1.5050     6.3530 ha         1 1CH       0.132000
     31 H8           0.4790    -2.2560     4.0470 ha         1 1CH       0.133500
     32 H9           1.0460    -0.8260     2.0830 ha         1 1CH       0.134000
     33 H10          5.3840     1.6020     1.3100 hn         1 1CH       0.466800
     34 H11          7.8900    -1.0840     4.6270 hc         1 1CH       0.050200
     35 H12          8.1290    -1.5430     2.8830 hc         1 1CH       0.050200
     36 H13          8.0450    -2.8290     4.1610 hc         1 1CH       0.050200
     37 H14          5.7970    -1.8190     5.8300 hc         1 1CH       0.050200
     38 H15          5.9620    -3.5050     5.1740 hc         1 1CH       0.050200
     39 H16          4.4210    -2.5790     4.9230 hc         1 1CH       0.050200
     40 H17          4.7930    -3.4200     2.7110 hc         1 1CH       0.071200
     41 H18          6.5480    -3.8580     2.6900 hc         1 1CH       0.071200
     42 H19          5.5180     0.4890    -0.5710 ha         1 1CH       0.192000
     43 H20          6.1100    -1.0100    -2.4280 ha         1 1CH       0.154000
     44 H21          6.5790    -3.4330    -2.0180 ha         1 1CH       0.142000
     45 H22          6.4600    -4.3510     0.2980 ha         1 1CH       0.140000
     46 H132         4.6450     1.5570     2.8270 hn         1 1CH       0.466800
@<TRIPOS>BOND
     1     1     2 1   
     2     2     3 1   
     3     2     4 1   
     4     4     5 1   
     5     4    12 1   
     6     4    25 1   
     7     5     6 1   
     8     5    26 1   
     9     5    27 1   
    10     6     7 ar  
    11     6    11 ar  
    12     7     8 ar  
    13     7    28 1   
    14     8     9 ar  
    15     8    29 1   
    16     9    10 ar  
    17     9    30 1   
    18    10    11 ar  
    19    10    31 1   
    20    11    32 1   
    21    12    13 1   
    22    12    33 1   
    23    12    46 1   
    24    13    14 2   
    25    13    20 1   
    26    14    15 1   
    27    15    16 1   
    28    15    17 1   
    29    15    18 1   
    30    16    34 1   
    31    16    35 1   
    32    16    36 1   
    33    17    37 1   
    34    17    38 1   
    35    17    39 1   
    36    18    19 1   
    37    18    40 1   
    38    18    41 1   
    39    19    20 ar  
    40    19    24 ar  
    41    20    21 ar  
    42    21    22 ar  
    43    21    42 1   
    44    22    23 ar  
    45    22    43 1   
    46    23    24 ar  
    47    23    44 1   
    48    24    45 1   
@<TRIPOS>SUBSTRUCTURE
     1 1CH         1 TEMP              0 ****  ****    0 ROOT
