@<TRIPOS>MOLECULE
1CH
   45    47     1     0     0
SMALL
bcc


@<TRIPOS>ATOM
      1 O17          0.0000     0.0000     0.0000 o          1 1CH      -0.888300
      2 C15          1.3410     0.0000     0.0000 c          1 1CH       0.977600
      3 O16          1.9460     0.0000    -1.0460 o          1 1CH      -0.888300
      4 C14          2.0970     0.0000     1.3050 c3         1 1CH       0.021500
      5 C18          1.7270     1.2490     2.1070 c3         1 1CH       0.023900
      6 C19          2.3850     1.1890     3.4610 ca         1 1CH      -0.063300
      7 C24          1.7300     0.5900     4.5210 ca         1 1CH      -0.103500
      8 C23          2.3340     0.5340     5.7640 ca         1 1CH      -0.108500
      9 C22          3.5920     1.0770     5.9460 ca         1 1CH      -0.129000
     10 C21          4.2470     1.6750     4.8860 ca         1 1CH      -0.108500
     11 C20          3.6450     1.7270     3.6420 ca         1 1CH      -0.103500
     12 N13          3.5360     0.0000     1.0370 nu         1 1CH      -0.402200
     13 C10          4.1940    -1.1880     0.8070 ce         1 1CH       0.540800
     14 N9           3.5410    -2.3140     0.8290 n2         1 1CH      -0.657900
     15 C8           4.2040    -3.5960     0.6190 c3         1 1CH       0.149200
     16 C12          4.8010    -4.0760     1.9430 c3         1 1CH      -0.000600
     17 C11          3.1740    -4.6190     0.1330 c3         1 1CH      -0.000600
     18 C7           5.3180    -3.4790    -0.4200 c3         1 1CH       0.000900
     19 C2           6.2130    -2.3190    -0.0700 ca         1 1CH      -0.051300
     20 C3           5.6490    -1.1930     0.5300 ca         1 1CH      -0.134900
     21 C4           6.4520    -0.1080     0.8640 ca         1 1CH      -0.089000
     22 C5           7.8060    -0.1550     0.5970 ca         1 1CH      -0.120000
     23 C6           8.3600    -1.2730     0.0010 ca         1 1CH      -0.110000
     24 C1           7.5630    -2.3540    -0.3360 ca         1 1CH      -0.113000
     25 H2           1.8360    -0.8850     1.8720 h1         1 1CH       0.061700
     26 H3           2.0680     2.1310     1.5790 hc         1 1CH       0.035200
     27 H4           0.6520     1.2940     2.2300 hc         1 1CH       0.035200
     28 H5           0.7450     0.1640     4.3780 ha         1 1CH       0.109000
     29 H6           1.8210     0.0650     6.5950 ha         1 1CH       0.091000
     30 H7           4.0640     1.0350     6.9200 ha         1 1CH       0.090000
     31 H8           5.2330     2.0990     5.0280 ha         1 1CH       0.091000
     32 H9           4.1580     2.1960     2.8110 ha         1 1CH       0.109000
     33 H10          4.0490     0.8590     1.0600 hn         1 1CH       0.272800
     34 H11          4.0050    -4.2430     2.6590 hc         1 1CH       0.002533
     35 H12          5.4800    -3.3230     2.3260 hc         1 1CH       0.002533
     36 H13          5.3420    -5.0010     1.7810 hc         1 1CH       0.002533
     37 H14          3.6540    -5.5800     0.0000 hc         1 1CH       0.002533
     38 H15          2.7560    -4.2900    -0.8110 hc         1 1CH       0.002533
     39 H16          2.3810    -4.7090     0.8670 hc         1 1CH       0.002533
     40 H17          4.8720    -3.2950    -1.3900 hc         1 1CH       0.029200
     41 H18          5.9050    -4.3890    -0.4060 hc         1 1CH       0.029200
     42 H19          6.0180     0.7680     1.3300 ha         1 1CH       0.107000
     43 H20          8.4370     0.6860     0.8570 ha         1 1CH       0.093000
     44 H21          9.4240    -1.3030    -0.2050 ha         1 1CH       0.090000
     45 H22          8.0020    -3.2280    -0.8020 ha         1 1CH       0.099000
@<TRIPOS>BOND
     1     1     2 1   
     2     2     3 1   
     3     2     4 1   
     4     4     5 1   
     5     4    12 1   
     6     4    25 1   
     7     5     6 1   
     8     5    26 1   
     9     5    27 1   
    10     6     7 ar  
    11     6    11 ar  
    12     7     8 ar  
    13     7    28 1   
    14     8     9 ar  
    15     8    29 1   
    16     9    10 ar  
    17     9    30 1   
    18    10    11 ar  
    19    10    31 1   
    20    11    32 1   
    21    12    13 1   
    22    12    33 1   
    23    13    14 2   
    24    13    20 1   
    25    14    15 1   
    26    15    16 1   
    27    15    17 1   
    28    15    18 1   
    29    16    34 1   
    30    16    35 1   
    31    16    36 1   
    32    17    37 1   
    33    17    38 1   
    34    17    39 1   
    35    18    19 1   
    36    18    40 1   
    37    18    41 1   
    38    19    20 ar  
    39    19    24 ar  
    40    20    21 ar  
    41    21    22 ar  
    42    21    42 1   
    43    22    23 ar  
    44    22    43 1   
    45    23    24 ar  
    46    23    44 1   
    47    24    45 1   
@<TRIPOS>SUBSTRUCTURE
     1 1CH         1 TEMP              0 ****  ****    0 ROOT
