@<TRIPOS>MOLECULE
1CI
   19    20     1     0     0
SMALL
bcc


@<TRIPOS>ATOM
      1 C11          0.0590    -0.1530     0.0080 ca         1 1CI      -0.140000
      2 C10          1.4490    -0.1630    -0.0000 ca         1 1CI      -0.103000
      3 C9           2.1580    -0.0110     1.1950 ca         1 1CI       0.004400
      4 Cl           3.8560    -0.0210     1.1790 cl         1 1CI      -0.082400
      5 C8           1.4740     0.1480     2.4030 ca         1 1CI      -0.103000
      6 C7           0.0830     0.1530     2.4210 ca         1 1CI      -0.140000
      7 C6          -0.6470     0.0030     1.2220 ca         1 1CI       0.020800
      8 N1          -2.0510     0.0080     1.2340 na         1 1CI      -0.145000
      9 C5          -2.8810     0.6170     2.1890 cc         1 1CI      -0.245600
     10 C4          -4.1990     0.3520     1.7850 cd         1 1CI       0.297200
     11 N3          -4.2010    -0.4060     0.6110 nd         1 1CI      -0.660000
     12 C2          -2.9090    -0.6020     0.2930 cc         1 1CI       0.402400
     13 H11         -0.4830    -0.2620    -0.9450 ha         1 1CI       0.147500
     14 H10          1.9870    -0.2870    -0.9530 ha         1 1CI       0.154000
     15 H8           2.0310     0.2660     3.3460 ha         1 1CI       0.154000
     16 H7          -0.4400     0.2690     3.3830 ha         1 1CI       0.147500
     17 H5          -2.4860     1.1780     3.0330 h4         1 1CI       0.180000
     18 H4          -5.1280     0.6580     2.2640 h4         1 1CI       0.046100
     19 H2          -2.5340    -1.1680    -0.5660 h5         1 1CI       0.064100
@<TRIPOS>BOND
     1     1     2 ar  
     2     1     7 ar  
     3     1    13 1   
     4     2     3 ar  
     5     2    14 1   
     6     3     4 1   
     7     3     5 ar  
     8     5     6 ar  
     9     5    15 1   
    10     6     7 ar  
    11     6    16 1   
    12     7     8 1   
    13     8     9 1   
    14     8    12 1   
    15     9    10 2   
    16     9    17 1   
    17    10    11 1   
    18    10    18 1   
    19    11    12 2   
    20    12    19 1   
@<TRIPOS>SUBSTRUCTURE
     1 1CI         1 TEMP              0 ****  ****    0 ROOT
