@<TRIPOS>MOLECULE
molecule
   19    20     1     0     0
SMALL
bcc


@<TRIPOS>ATOM
      1 C11          0.0000     0.0000     0.0000 ca         1 1CI      -0.140500
      2 C10          1.3810     0.0000     0.0000 ca         1 1CI      -0.096500
      3 C9           2.0740     0.0000     1.1980 ca         1 1CI       0.014400
      4 Cl           3.8100     0.0010     1.1940 cl         1 1CI      -0.099400
      5 C8           1.3850    -0.0010     2.3980 ca         1 1CI      -0.096500
      6 C7           0.0040    -0.0020     2.4030 ca         1 1CI      -0.140500
      7 C6          -0.6930    -0.0010     1.2030 ca         1 1CI       0.017800
      8 N1          -2.0960    -0.0010     1.2050 na         1 1CI      -0.112000
      9 C5          -2.9090    -0.0020     2.3090 cc         1 1CI      -0.271600
     10 C4          -4.1770    -0.0010     1.8590 cd         1 1CI       0.320200
     11 N3          -4.1460     0.0000     0.5180 nd         1 1CI      -0.687000
     12 C2          -2.9050     0.0060     0.1140 cc         1 1CI       0.404400
     13 H11         -0.5420     0.0000    -0.9380 ha         1 1CI       0.146000
     14 H10          1.9220     0.0010    -0.9380 ha         1 1CI       0.152000
     15 H8           1.9300    -0.0010     3.3340 ha         1 1CI       0.152000
     16 H7          -0.5340    -0.0030     3.3430 ha         1 1CI       0.146000
     17 H5          -2.5910    -0.0030     3.3450 h4         1 1CI       0.176000
     18 H4          -5.0690    -0.0030     2.4740 h4         1 1CI       0.045100
     19 H2          -2.5750     0.0080    -0.9180 h5         1 1CI       0.068100
@<TRIPOS>BOND
     1     1     2 ar
     2     1     7 ar
     3     1    13 1
     4     2     3 ar
     5     2    14 1
     6     3     4 1
     7     3     5 ar
     8     5     6 ar
     9     5    15 1
    10     6     7 ar
    11     6    16 1
    12     7     8 1
    13     8     9 1
    14     8    12 1
    15     9    10 2
    16     9    17 1
    17    10    11 1
    18    10    18 1
    19    11    12 2
    20    12    19 1
@<TRIPOS>SUBSTRUCTURE
     1 1CI         1 TEMP              0 ****  ****    0 ROOT
