@<TRIPOS>MOLECULE
1CI
   19    20     1     0     0
SMALL
bcc


@<TRIPOS>ATOM
      1 C11         0.0140   -0.2040    0.0120 ca        1 1CI     -0.140000
      2 C10         1.4050   -0.2070    0.0040 ca        1 1CI     -0.103000
      3 C9          2.1130   -0.0040    1.1920 ca        1 1CI      0.004400
      4 CL          3.8100   -0.0130    1.1770 cl        1 1CI     -0.082400
      5 C8          1.4270    0.2050    2.3920 ca        1 1CI     -0.103000
      6 C7          0.0370    0.2170    2.4080 ca        1 1CI     -0.140000
      7 C6         -0.6920    0.0110    1.2160 ca        1 1CI      0.020800
      8 N1         -2.0960    0.0200    1.2260 na        1 1CI     -0.145000
      9 C5         -2.9310   -0.2720    2.3170 cc        1 1CI     -0.245600
     10 C4         -4.2470   -0.1280    1.8500 cd        1 1CI      0.297200
     11 N3         -4.2430    0.2480    0.5040 nd        1 1CI     -0.660000
     12 C2         -2.9500    0.3320    0.1450 cc        1 1CI      0.402400
     13 H11        -0.5270   -0.3770   -0.9320 ha        1 1CI      0.147500
     14 H10         1.9430   -0.3740   -0.9420 ha        1 1CI      0.154000
     15 H8          1.9840    0.3660    3.3290 ha        1 1CI      0.154000
     16 H7         -0.4870    0.3940    3.3600 ha        1 1CI      0.147500
     17 H5         -2.5410   -0.5600    3.2900 h4        1 1CI      0.180000
     18 H4         -5.1780   -0.2710    2.3960 h4        1 1CI      0.046100
     19 H2         -2.5710    0.6150   -0.8420 h5        1 1CI      0.064100
@<TRIPOS>BOND
     1    1    2 ar  
     2    1    7 ar  
     3    1   13 1   
     4    2    3 ar  
     5    2   14 1   
     6    3    4 1   
     7    3    5 ar  
     8    5    6 ar  
     9    5   15 1   
    10    6    7 ar  
    11    6   16 1   
    12    7    8 1   
    13    8    9 1   
    14    8   12 1   
    15    9   10 2   
    16    9   17 1   
    17   10   11 1   
    18   10   18 1   
    19   11   12 2   
    20   12   19 1   
@<TRIPOS>SUBSTRUCTURE
     1 1CI         1 TEMP              0 ****  ****    0 ROOT
