@<TRIPOS>MOLECULE
molecule
   26    27     1     0     0
SMALL
bcc


@<TRIPOS>ATOM
      1 O1           0.0000     0.0000     0.0000 oh         1 1CJ      -0.613800
      2 C1           1.4290     0.0000     0.0000 c3         1 1CJ       0.430100
      3 O2           1.9050    -1.1680    -0.6720 os         1 1CJ      -0.423600
      4 C9           1.6790    -1.1580    -2.0830 c3         1 1CJ       0.134400
      5 C10          2.2260    -2.4490    -2.6960 c3         1 1CJ      -0.090100
      6 C2           1.9300     0.0000     1.4210 cc         1 1CJ      -0.348800
      7 C8           2.4810    -1.0770     2.0960 cd         1 1CJ       0.453500
      8 N2           2.8070    -0.7000     3.3120 nc         1 1CJ      -0.579100
      9 N1           2.4760     0.6520     3.4720 na         1 1CJ       0.198000
     10 C3           1.9300     1.0840     2.2910 cd         1 1CJ      -0.008300
     11 C7           2.6050     1.5130     4.5240 cc         1 1CJ      -0.014300
     12 C6           2.1990     2.7950     4.4170 cd         1 1CJ      -0.195000
     13 C5           1.6350     3.2640     3.2190 cc         1 1CJ      -0.097000
     14 C4           1.5040     2.4190     2.1600 cd         1 1CJ      -0.131000
     15 H1          -0.3140     0.7740    -0.4370 ho         1 1CJ       0.398000
     16 H2           1.7900     0.8840    -0.5110 h2         1 1CJ       0.019700
     17 H3           2.1840    -0.3070    -2.5240 h1         1 1CJ       0.024200
     18 H4           0.6160    -1.0890    -2.2780 h1         1 1CJ       0.024200
     19 H5           1.7250    -3.3010    -2.2520 hc         1 1CJ       0.044700
     20 H6           3.2910    -2.5170    -2.5050 hc         1 1CJ       0.044700
     21 H7           2.0510    -2.4440    -3.7650 hc         1 1CJ       0.044700
     22 H8           2.6200    -2.0710     1.6880 h4         1 1CJ       0.075800
     23 H9           3.0380     1.1640     5.4530 h4         1 1CJ       0.172000
     24 H10          2.3040     3.4650     5.2610 ha         1 1CJ       0.152000
     25 H11          1.3100     4.2950     3.1360 ha         1 1CJ       0.140000
     26 H12          1.0710     2.7680     1.2310 ha         1 1CJ       0.143000
@<TRIPOS>BOND
     1     8     7 2   
     2     8     9 1   
     3    11     9 1   
     4    11    12 2   
     5     7     6 1   
     6     9    10 1   
     7    12    13 1   
     8     6    10 2   
     9     6     2 1   
    10    10    14 1   
    11     1     2 1   
    12    13    14 2   
    13     2     3 1   
    14     3     4 1   
    15     4     5 1   
    16     1    15 1   
    17     2    16 1   
    18     4    17 1   
    19     4    18 1   
    20     5    19 1   
    21     5    20 1   
    22     5    21 1   
    23     7    22 1   
    24    11    23 1   
    25    12    24 1   
    26    13    25 1   
    27    14    26 1   
@<TRIPOS>SUBSTRUCTURE
     1 1CJ         1 TEMP              0 ****  ****    0 ROOT
