@<TRIPOS>MOLECULE
1CJ
   26    27     1     0     0
SMALL
bcc


@<TRIPOS>ATOM
      1 O1          0.5450    0.7160   -0.4580 oh        1 1CJ     -0.628800
      2 C1          1.8360    0.2030   -0.2150 c3        1 1CJ      0.421100
      3 O2          1.7870   -1.1460   -0.6660 os        1 1CJ     -0.453600
      4 C9          1.7860   -1.2610   -2.0910 c3        1 1CJ      0.132400
      5 C10         1.6070   -2.7260   -2.4100 c3        1 1CJ     -0.097100
      6 C2          2.2270    0.2040    1.2100 cc        1 1CJ     -0.344800
      7 C8          2.9670   -0.8060    1.9170 cc        1 1CJ      0.415500
      8 N2          3.1900   -0.4430    3.2110 nd        1 1CJ     -0.575100
      9 N1          2.6180    0.7660    3.3690 na        1 1CJ      0.195000
     10 C3          1.9980    1.2250    2.1610 cd        1 1CJ     -0.022300
     11 C7          2.5730    1.5570    4.5080 cc        1 1CJ     -0.040300
     12 C6          1.9320    2.7740    4.4720 cd        1 1CJ     -0.181000
     13 C5          1.3060    3.2420    3.2810 cc        1 1CJ     -0.109000
     14 C4          1.3340    2.4830    2.1420 cd        1 1CJ     -0.115000
     15 H1         -0.0860    0.1770    0.0340 ho        1 1CJ      0.418000
     16 H2          2.5290    0.8360   -0.8420 h2        1 1CJ      0.076700
     17 H3          0.9490   -0.6450   -2.5130 h1        1 1CJ      0.033700
     18 H4          2.7630   -0.8760   -2.4890 h1        1 1CJ      0.033700
     19 H5          0.6390   -3.0990   -1.9960 hc        1 1CJ      0.045033
     20 H6          1.6100   -2.8650   -3.5170 hc        1 1CJ      0.045033
     21 H7          2.4330   -3.3280   -1.9620 hc        1 1CJ      0.045033
     22 H8          3.3170   -1.7590    1.5140 h4        1 1CJ      0.064800
     23 H9          3.0680    1.1550    5.4090 h4        1 1CJ      0.178000
     24 H10         1.9020    3.3940    5.3790 ha        1 1CJ      0.153000
     25 H11         0.8010    4.2190    3.2980 ha        1 1CJ      0.144000
     26 H12         0.8590    2.7900    1.1970 ha        1 1CJ      0.167000
@<TRIPOS>BOND
     1    1    2 1   
     2    1   15 1   
     3    2    3 1   
     4    2    6 1   
     5    2   16 1   
     6    3    4 1   
     7    4    5 1   
     8    4   17 1   
     9    4   18 1   
    10    5   19 1   
    11    5   20 1   
    12    5   21 1   
    13    6    7 1   
    14    6   10 2   
    15    7    8 2   
    16    7   22 1   
    17    8    9 1   
    18    9   10 1   
    19    9   11 1   
    20   10   14 1   
    21   11   12 2   
    22   11   23 1   
    23   12   13 1   
    24   12   24 1   
    25   13   14 2   
    26   13   25 1   
    27   14   26 1   
@<TRIPOS>SUBSTRUCTURE
     1 1CJ         1 TEMP              0 ****  ****    0 ROOT
