@<TRIPOS>MOLECULE
1CJ
   26    27     1     0     0
SMALL
bcc


@<TRIPOS>ATOM
      1 O1          -0.1550    -0.4960     0.1650 oh         1 1CJ      -0.623800
      2 C1           1.1750    -0.0550     0.0200 c3         1 1CJ       0.423100
      3 O2           1.8030    -1.0460    -0.7860 os         1 1CJ      -0.462600
      4 C9           1.3930    -0.9970    -2.1550 c3         1 1CJ       0.132400
      5 C10          2.0480    -2.1710    -2.8460 c3         1 1CJ      -0.097100
      6 C2           1.9050     0.0650     1.3000 cc         1 1CJ      -0.347800
      7 C8           1.4320     0.7790     2.4570 cc         1 1CJ       0.397500
      8 N2           2.3420     0.7450     3.4680 nd         1 1CJ      -0.572100
      9 N1           3.3900     0.0350     3.0100 na         1 1CJ       0.192000
     10 C3           3.1810    -0.4210     1.6670 cd         1 1CJ      -0.005300
     11 C7           4.5720    -0.2770     3.6690 cc         1 1CJ      -0.044300
     12 C6           5.5350    -1.0230     3.0300 cd         1 1CJ      -0.178000
     13 C5           5.3420    -1.4860     1.6970 cc         1 1CJ      -0.115000
     14 C4           4.1870    -1.1940     1.0220 cd         1 1CJ      -0.104000
     15 H1          -0.1410    -1.3440     0.6250 ho         1 1CJ       0.417000
     16 H2           1.1020     0.9380    -0.5120 h2         1 1CJ       0.078700
     17 H3           1.7300    -0.0240    -2.6030 h1         1 1CJ       0.035700
     18 H4           0.2740    -1.0610    -2.2110 h1         1 1CJ       0.035700
     19 H5           1.6920    -3.1310    -2.4040 hc         1 1CJ       0.044033
     20 H6           3.1570    -2.1210    -2.7320 hc         1 1CJ       0.044033
     21 H7           1.7900    -2.1500    -3.9320 hc         1 1CJ       0.044033
     22 H8           0.4750     1.2940     2.5660 h4         1 1CJ       0.059800
     23 H9           4.6780     0.1010     4.7010 h4         1 1CJ       0.177000
     24 H10          6.4670    -1.2660     3.5590 ha         1 1CJ       0.152000
     25 H11          6.1370    -2.0820     1.2250 ha         1 1CJ       0.143000
     26 H12          3.9820    -1.5310    -0.0060 ha         1 1CJ       0.174000
@<TRIPOS>BOND
     1     1     2 1   
     2     1    15 1   
     3     2     3 1   
     4     2     6 1   
     5     2    16 1   
     6     3     4 1   
     7     4     5 1   
     8     4    17 1   
     9     4    18 1   
    10     5    19 1   
    11     5    20 1   
    12     5    21 1   
    13     6     7 1   
    14     6    10 2   
    15     7     8 2   
    16     7    22 1   
    17     8     9 1   
    18     9    10 1   
    19     9    11 1   
    20    10    14 1   
    21    11    12 2   
    22    11    23 1   
    23    12    13 1   
    24    12    24 1   
    25    13    14 2   
    26    13    25 1   
    27    14    26 1   
@<TRIPOS>SUBSTRUCTURE
     1 1CJ         1 TEMP              0 ****  ****    0 ROOT
