@<TRIPOS>MOLECULE
1CK
   26    27     1     0     0
SMALL
bcc


@<TRIPOS>ATOM
      1 N1I          0.0560     0.0330    -0.1460 nc         1 1CK      -0.562800
      2 N1J         -1.7570    -0.1390     1.4910 ns         1 1CK      -0.528400
      3 N1K          1.3830     0.0640    -0.0660 na         1 1CK      -0.016600
      4 CAA          3.2840    -0.0160     1.6170 c3         1 1CK      -0.035800
      5 OAB         -1.5020    -0.4130     3.7750 o          1 1CK      -0.580100
      6 CAD         -5.6690    -1.3380     3.9630 ca         1 1CK      -0.111000
      7 CAE         -5.9430     0.4790     2.3860 ca         1 1CK      -0.111000
      8 CAF         -4.2870    -1.2740     3.7950 ca         1 1CK      -0.092000
      9 CAG         -4.5610     0.5400     2.2140 ca         1 1CK      -0.092000
     10 CAH          0.7290    -0.1220     2.0730 cd         1 1CK      -0.283300
     11 CAL         -2.2430    -0.2980     2.7810 c          1 1CK       0.682700
     12 CAM          1.8610    -0.0260     1.2480 cc         1 1CK      -0.091600
     13 CAN         -6.5000    -0.4640     3.2560 ca         1 1CK      -0.007900
     14 CAO         -3.7310    -0.3400     2.9140 ca         1 1CK      -0.132600
     15 CAP         -0.4020    -0.0820     1.1580 cd         1 1CK       0.417200
     16 HN1J        -2.4100    -0.1050     0.7400 hn         1 1CK       0.331500
     17 HAA          3.7760     0.9340     1.2890 hc         1 1CK       0.055033
     18 HAAA         3.8260    -0.8760     1.1480 hc         1 1CK       0.055033
     19 HAAB         3.3780    -0.1000     2.7280 hc         1 1CK       0.055033
     20 HAD         -6.0970    -2.0790     4.6570 ha         1 1CK       0.153000
     21 HAE         -6.5890     1.1790     1.8330 ha         1 1CK       0.153000
     22 HAF         -3.6240    -1.9470     4.3630 ha         1 1CK       0.152500
     23 HAG         -4.1360     1.2980     1.5380 ha         1 1CK       0.152500
     24 HAH          0.6820    -0.2100     3.1550 ha         1 1CK       0.195000
     25 H10          1.9240     0.1420    -0.8950 hn         1 1CK       0.320700
     26 BrAC        -8.3570    -0.5500     3.4770 br         1 1CK      -0.077100
@<TRIPOS>BOND
     1     1     3 1   
     2     1    15 2   
     3     2    11 1   
     4     2    15 1   
     5     2    16 1   
     6     3    12 1   
     7     3    25 1   
     8     4    12 1   
     9     4    17 1   
    10     4    18 1   
    11     4    19 1   
    12     5    11 2   
    13     6     8 ar  
    14     6    13 ar  
    15     6    20 1   
    16     7     9 ar  
    17     7    13 ar  
    18     7    21 1   
    19     8    14 ar  
    20     8    22 1   
    21     9    14 ar  
    22     9    23 1   
    23    10    12 2   
    24    10    15 1   
    25    10    24 1   
    26    11    14 1   
    27    13    26 1   
@<TRIPOS>SUBSTRUCTURE
     1 1CK         1 TEMP              0 ****  ****    0 ROOT
