@<TRIPOS>MOLECULE
1CK
   26    27     1     0     0
SMALL
bcc


@<TRIPOS>ATOM
      1 N1I          0.0000     0.0000     0.0000 nc         1 1CK      -0.708800
      2 N1J         -1.7420     0.0000     1.6760 ns         1 1CK      -0.096400
      3 N1K          1.4000     0.0000     0.0000 na         1 1CK       0.465400
      4 CAA          3.2530     0.0010     1.7480 c3         1 1CK       0.102200
      5 OAB         -1.1260     0.0000     3.8100 o          1 1CK      -0.597100
      6 CAD         -5.5880    -0.0020     4.6420 ca         1 1CK      -0.083000
      7 CAE         -6.0690     0.0050     2.2880 ca         1 1CK      -0.083000
      8 CAF         -4.2360    -0.0020     4.3720 ca         1 1CK      -0.076000
      9 CAG         -4.7190    -0.0010     2.0060 ca         1 1CK      -0.076000
     10 CAH          0.7240     0.0010     2.0770 cd         1 1CK      -0.332300
     11 CAL         -2.0270    -0.0000     2.9940 c          1 1CK       0.606700
     12 CAM          1.8190     0.0000     1.2830 cc         1 1CK      -0.246600
     13 CAN         -6.5050    -0.0010     3.6030 ca         1 1CK       0.040100
     14 CAO         -3.7900    -0.0010     3.0490 ca         1 1CK      -0.146600
     15 CAP         -0.4090     0.0000     1.2480 cd         1 1CK       0.338200
     16 HN1J        -2.4840     0.0090     1.0040 hn         1 1CK       0.184500
     17 HAA          3.3770    -0.7320     2.5360 hc         1 1CK       0.010700
     18 HAAA         3.5090     0.9840     2.1250 hc         1 1CK       0.010700
     19 HAAB         3.9020    -0.2480     0.9170 hc         1 1CK       0.010700
     20 HAD         -5.9340    -0.0030     5.6680 ha         1 1CK       0.119500
     21 HAE         -6.7900     0.0040     1.4800 ha         1 1CK       0.119500
     22 HAF         -3.5200    -0.0020     5.1850 ha         1 1CK       0.117000
     23 HAG         -4.3790     0.0010     0.9770 ha         1 1CK       0.117000
     24 HAH          0.7210     0.0010     3.1600 ha         1 1CK       0.183000
     25 H10          1.9880    -0.0000    -0.8100 hn         1 1CK       0.145700
     26 BrAC        -8.3570    -0.0100     3.9810 br         1 1CK      -0.124100
@<TRIPOS>BOND
     1     1     3 1   
     2     1    15 2   
     3     2    11 1   
     4     2    15 1   
     5     2    16 1   
     6     3    12 1   
     7     3    25 1   
     8     4    12 1   
     9     4    17 1   
    10     4    18 1   
    11     4    19 1   
    12     5    11 2   
    13     6     8 ar  
    14     6    13 ar  
    15     6    20 1   
    16     7     9 ar  
    17     7    13 ar  
    18     7    21 1   
    19     8    14 ar  
    20     8    22 1   
    21     9    14 ar  
    22     9    23 1   
    23    10    12 2   
    24    10    15 1   
    25    10    24 1   
    26    11    14 1   
    27    13    26 1   
@<TRIPOS>SUBSTRUCTURE
     1 1CK         1 TEMP              0 ****  ****    0 ROOT
