@<TRIPOS>MOLECULE
1CM
   34    35     1     0     0
SMALL
bcc


@<TRIPOS>ATOM
      1 O23         -0.0480     0.4350    -0.0810 o          1 1CM      -0.585100
      2 C22          1.1480     0.0980    -0.0490 c          1 1CM       0.673100
      3 C31          1.8790    -0.0180     1.2960 c3         1 1CM      -0.093400
      4 C36          2.6910     1.2460     1.5510 c3         1 1CM      -0.073400
      5 C35          1.8020     2.4170     1.8830 c3         1 1CM      -0.102100
      6 C33          2.0940    -2.4440     1.8440 ca         1 1CM      -0.127000
      7 C32          2.6960    -1.2660     1.3810 ca         1 1CM      -0.096300
      8 C41          4.7850    -2.4680     1.1200 ca         1 1CM      -0.125500
      9 C42          4.1790    -3.6370     1.5790 ca         1 1CM      -0.122000
     10 N21          1.8970    -0.1630    -1.1890 ns         1 1CM      -0.466100
     11 C14          1.4600    -0.1310    -2.5180 ca         1 1CM       0.107600
     12 C15          2.3550    -0.5360    -3.5420 ca         1 1CM      -0.290800
     13 C11          2.8320    -3.6220     1.9410 ca         1 1CM      -0.125500
     14 C16          1.9240    -0.4890    -4.8730 ca         1 1CM       0.414700
     15 N11          0.6990    -0.0800    -5.2560 nb         1 1CM      -0.685000
     16 C12         -0.1440     0.3020    -4.2790 ca         1 1CM       0.414700
     17 C10          4.0480    -1.2880     1.0200 ca         1 1CM      -0.127000
     18 C13          0.1730     0.2990    -2.9110 ca         1 1CM      -0.290800
     19 H31          1.0620    -0.0720     2.0770 hc         1 1CM       0.096700
     20 H361         3.3160     1.4890     0.6520 hc         1 1CM       0.049200
     21 H362         3.3950     1.0520     2.4040 hc         1 1CM       0.049200
     22 H351         1.0180     2.5510     1.0970 hc         1 1CM       0.044367
     23 H352         2.4080     3.3530     1.9480 hc         1 1CM       0.044367
     24 H353         1.2890     2.2590     2.8620 hc         1 1CM       0.044367
     25 H33          1.0310    -2.4380     2.1330 ha         1 1CM       0.137000
     26 H41          5.8480    -2.4740     0.8380 ha         1 1CM       0.136500
     27 H42          4.7610    -4.5660     1.6570 ha         1 1CM       0.136000
     28 H21          2.8300    -0.4890    -1.0480 hn         1 1CM       0.325500
     29 H15          3.3700    -0.8850    -3.3110 ha         1 1CM       0.160000
     30 H11          2.3490    -4.5410     2.3050 ha         1 1CM       0.136500
     31 H16          2.6020    -0.8000    -5.6890 h4         1 1CM       0.022100
     32 H12         -1.1450     0.6330    -4.6110 h4         1 1CM       0.022100
     33 H10          4.5420    -0.3700     0.6670 ha         1 1CM       0.137000
     34 H13         -0.5770     0.6250    -2.1750 ha         1 1CM       0.160000
@<TRIPOS>BOND
     1     1     2 2   
     2     2     3 1   
     3     2    10 1   
     4     3     4 1   
     5     3     7 1   
     6     3    19 1   
     7     4     5 1   
     8     4    20 1   
     9     4    21 1   
    10     5    22 1   
    11     5    23 1   
    12     5    24 1   
    13     6     7 ar  
    14     6    13 ar  
    15     6    25 1   
    16     7    17 ar  
    17     8     9 ar  
    18     8    17 ar  
    19     8    26 1   
    20     9    13 ar  
    21     9    27 1   
    22    10    11 1   
    23    10    28 1   
    24    11    12 ar  
    25    11    18 ar  
    26    12    14 ar  
    27    12    29 1   
    28    13    30 1   
    29    14    15 ar  
    30    14    31 1   
    31    15    16 ar  
    32    16    18 ar  
    33    16    32 1   
    34    17    33 1   
    35    18    34 1   
@<TRIPOS>SUBSTRUCTURE
     1 1CM         1 TEMP              0 ****  ****    0 ROOT
