@<TRIPOS>MOLECULE
1CM
   34    35     1     0     0
SMALL
bcc


@<TRIPOS>ATOM
      1 O23          0.0000     0.0000     0.0000 o          1 1CM      -0.629100
      2 C22          1.2130     0.0000     0.0000 c          1 1CM       0.570100
      3 C31          1.9670     0.0000     1.3050 c3         1 1CM      -0.061400
      4 C36          1.1250    -0.6900     2.3800 c3         1 1CM      -0.013400
      5 C35          1.9560    -0.8440     3.6560 c3         1 1CM      -0.000100
      6 C33          3.5540     1.8470     1.8850 ca         1 1CM      -0.096000
      7 C32          2.2490     1.4200     1.7210 ca         1 1CM      -0.097300
      8 C41          1.4620     3.6010     2.3210 ca         1 1CM      -0.097500
      9 C42          2.7670     4.0270     2.4850 ca         1 1CM      -0.098000
     10 N21          1.8860    -0.0010    -1.1670 ns         1 1CM      -0.026100
     11 C14          1.1930    -0.1140    -2.3730 ca         1 1CM      -0.062400
     12 C15          1.7550    -0.7800    -3.4610 ca         1 1CM      -0.245300
     13 C11          3.8130     3.1500     2.2680 ca         1 1CM      -0.097500
     14 C16          1.0360    -0.8710    -4.6360 ca         1 1CM       0.422200
     15 N11         -0.1670    -0.3370    -4.7350 nb         1 1CM      -0.598000
     16 C12         -0.7330     0.3000    -3.7270 ca         1 1CM       0.422200
     17 C10          1.2030     2.2990     1.9350 ca         1 1CM      -0.096000
     18 C13         -0.0820     0.4300    -2.5190 ca         1 1CM      -0.245300
     19 H31          2.9020    -0.5330     1.1820 hc         1 1CM       0.035700
     20 H361         0.8200    -1.6670     2.0280 hc         1 1CM       0.029700
     21 H362         0.2470    -0.0910     2.5910 hc         1 1CM       0.029700
     22 H351         2.9780    -1.0910     3.3950 hc         1 1CM       0.003700
     23 H352         1.9400     0.0860     4.2120 hc         1 1CM       0.003700
     24 H353         1.5380    -1.6360     4.2660 hc         1 1CM       0.003700
     25 H33          4.3740     1.1600     1.7150 ha         1 1CM       0.114500
     26 H41          0.6420     4.2890     2.4900 ha         1 1CM       0.105000
     27 H42          2.9690     5.0480     2.7860 ha         1 1CM       0.104000
     28 H21          2.8840     0.0790    -1.1700 hn         1 1CM       0.171500
     29 H15          2.7420    -1.2190    -3.3860 ha         1 1CM       0.135000
     30 H11          4.8350     3.4840     2.3960 ha         1 1CM       0.105000
     31 H16          1.4650    -1.3860    -5.4870 h4         1 1CM      -0.020400
     32 H12         -1.7230     0.7220    -3.8500 h4         1 1CM      -0.020400
     33 H10          0.1810     1.9650     1.8060 ha         1 1CM       0.114500
     34 H13         -0.5520     0.9550    -1.6960 ha         1 1CM       0.135000
@<TRIPOS>BOND
     1     1     2 2   
     2     2     3 1   
     3     2    10 1   
     4     3     4 1   
     5     3     7 1   
     6     3    19 1   
     7     4     5 1   
     8     4    20 1   
     9     4    21 1   
    10     5    22 1   
    11     5    23 1   
    12     5    24 1   
    13     6     7 ar  
    14     6    13 ar  
    15     6    25 1   
    16     7    17 ar  
    17     8     9 ar  
    18     8    17 ar  
    19     8    26 1   
    20     9    13 ar  
    21     9    27 1   
    22    10    11 1   
    23    10    28 1   
    24    11    12 ar  
    25    11    18 ar  
    26    12    14 ar  
    27    12    29 1   
    28    13    30 1   
    29    14    15 ar  
    30    14    31 1   
    31    15    16 ar  
    32    16    18 ar  
    33    16    32 1   
    34    17    33 1   
    35    18    34 1   
@<TRIPOS>SUBSTRUCTURE
     1 1CM         1 TEMP              0 ****  ****    0 ROOT
