@<TRIPOS>MOLECULE
1CN
   30    31     1     0     0
SMALL
bcc


@<TRIPOS>ATOM
      1 S1           0.3270    -0.9220     0.5710 sy         1 1CN       1.479800
      2 O1           1.5900    -0.3880     0.4260 o          1 1CN      -0.572300
      3 O2          -0.2680    -0.9930     1.8050 o          1 1CN      -0.572300
      4 N1          -0.7360     0.4580    -0.2150 nz         1 1CN      -0.781500
      5 N2          -1.3340    -2.5320    -0.5780 nc         1 1CN      -0.152000
      6 N3          -1.5100    -3.4900    -1.3430 nc         1 1CN      -0.323000
      7 S2           1.0340    -3.0040    -1.4420 ss         1 1CN       0.101200
      8 C1           0.0030    -2.0800    -0.4590 cd         1 1CN      -0.322700
      9 C2          -0.2830    -3.9540    -1.9620 cd         1 1CN       0.686300
     10 N4          -0.2690    -4.9750    -2.8290 nu         1 1CN      -0.717800
     11 S3          -1.6440    -5.8010    -3.5390 sy         1 1CN       1.528200
     12 O3          -1.0180    -6.5930    -4.5050 o          1 1CN      -0.605800
     13 O4          -2.5220    -4.8020    -3.9500 o          1 1CN      -0.605800
     14 C4          -3.2850    -6.2140    -1.5130 ca         1 1CN       0.024000
     15 C8          -1.6980    -7.9600    -2.0240 ca         1 1CN       0.054000
     16 C5          -3.8170    -6.9840    -0.4900 ca         1 1CN       0.008900
     17 C7          -3.2960    -8.3010    -0.1970 ca         1 1CN       0.278600
     18 C6          -2.2070    -8.7480    -1.0110 ca         1 1CN      -0.103600
     19 C3          -2.2120    -6.6780    -2.2990 ca         1 1CN      -0.531500
     20 N5          -3.8140    -9.0550     0.8000 nv         1 1CN      -0.818200
     21 F           -4.8520    -6.5050     0.2480 f          1 1CN      -0.127900
     22 Cl          -1.5320   -10.2830    -0.7380 cl         1 1CN      -0.052400
     23 HN11        -1.1640     0.1750    -1.0910 hn         1 1CN       0.456800
     24 HN12        -0.1710     1.2850    -0.3980 hn         1 1CN       0.456800
     25 HN4          0.6370    -5.2500    -3.1610 hn         1 1CN       0.470800
     26 H4          -3.7280    -5.2200    -1.7210 ha         1 1CN       0.183000
     27 H8          -0.8750    -8.3520    -2.6540 ha         1 1CN       0.173000
     28 HN51        -3.4740    -9.9720     0.9730 hn         1 1CN       0.463800
     29 HN52        -4.5910    -8.7200     1.3210 hn         1 1CN       0.463800
     30 H13         -1.4850     0.7250     0.4230 hn         1 1CN       0.456800
@<TRIPOS>BOND
     1     1     2 2   
     2     1     3 2   
     3     1     4 1   
     4     1     8 1   
     5     4    23 1   
     6     4    24 1   
     7     4    30 1   
     8     5     6 1   
     9     5     8 2   
    10     6     9 2   
    11     7     8 1   
    12     7     9 1   
    13     9    10 1   
    14    10    11 1   
    15    10    25 1   
    16    11    12 2   
    17    11    13 2   
    18    11    19 1   
    19    14    16 ar  
    20    14    19 ar  
    21    14    26 1   
    22    15    18 ar  
    23    15    19 ar  
    24    15    27 1   
    25    16    17 ar  
    26    16    21 1   
    27    17    18 ar  
    28    17    20 1   
    29    18    22 1   
    30    20    28 1   
    31    20    29 1   
@<TRIPOS>SUBSTRUCTURE
     1 1CN         1 TEMP              0 ****  ****    0 ROOT
