@<TRIPOS>MOLECULE
molecule
   30    31     1     0     0
SMALL
bcc


@<TRIPOS>ATOM
      1 S1           0.0000     0.0000     0.0000 sy         1 1CN       1.243800
      2 O1           1.4200     0.0000     0.0000 o          1 1CN      -0.502300
      3 O2          -0.8230     0.0000     1.1590 o          1 1CN      -0.502300
      4 N1          -0.4500     1.3340    -0.8720 nz         1 1CN      -0.805500
      5 N2          -1.0820    -1.5060    -2.0950 nc         1 1CN      -0.223000
      6 N3          -1.3540    -2.6140    -2.6320 nc         1 1CN      -0.399000
      7 S2          -0.2830    -3.1600    -0.5490 ss         1 1CN      -0.148800
      8 C1          -0.4780    -1.4210    -0.9270 cd         1 1CN       0.080300
      9 C2          -1.0570    -3.7670    -2.0460 cd         1 1CN       0.789300
     10 N4          -1.2770    -5.0680    -2.4720 nu         1 1CN      -0.781800
     11 S3          -2.0270    -5.3480    -3.9220 sy         1 1CN       1.396200
     12 O3          -2.0440    -6.7610    -4.0810 o          1 1CN      -0.580300
     13 O4          -3.1710    -4.5060    -3.9350 o          1 1CN      -0.580300
     14 C4          -0.0170    -5.5680    -5.7560 ca         1 1CN      -0.015000
     15 C8          -1.0870    -3.4270    -5.6170 ca         1 1CN       0.027000
     16 C5           0.8150    -5.0900    -6.7510 ca         1 1CN       0.040900
     17 C7           0.6970    -3.7740    -7.1830 ca         1 1CN       0.243600
     18 C6          -0.2530    -2.9410    -6.6070 ca         1 1CN      -0.073600
     19 C3          -0.9670    -4.7370    -5.1900 ca         1 1CN      -0.366500
     20 N5           1.5380    -3.2870    -8.1900 nv         1 1CN      -0.880200
     21 HN11        -0.1920     2.1620    -0.3720 hn         1 1CN       0.500800
     22 HN12         0.0110     1.3240    -1.7600 hn         1 1CN       0.500800
     23 HN4         -1.0230    -5.8370    -1.8830 hn         1 1CN       0.496800
     24 H4           0.0740    -6.5930    -5.4190 ha         1 1CN       0.171000
     25 H8          -1.8280    -2.7780    -5.1680 ha         1 1CN       0.176000
     26 HN51         2.2230    -3.8870    -8.6040 hn         1 1CN       0.455800
     27 HN52         1.4520    -2.3380    -8.4980 hn         1 1CN       0.455800
     28 F            1.7430    -5.9030    -7.3040 f          1 1CN      -0.126900
     29 H13         -1.4410     1.3220    -1.0130 hn         1 1CN       0.500800
     30 Cl          -0.4060    -1.2970    -7.1420 cl         1 1CN      -0.092400
@<TRIPOS>BOND
     1     1     2 2   
     2     1     3 2   
     3     1     4 1   
     4     1     8 1   
     5     4    21 1   
     6     4    22 1   
     7     5     6 1   
     8     5     8 2   
     9     6     9 2   
    10     7     8 1   
    11     7     9 1   
    12     9    10 1   
    13    10    11 1   
    14    10    23 1   
    15    11    12 2   
    16    11    13 2   
    17    11    19 1   
    18    14    16 ar  
    19    14    19 ar  
    20    14    24 1   
    21    15    18 ar  
    22    15    19 ar  
    23    15    25 1   
    24    16    17 ar  
    25    16    28 1   
    26    17    18 ar  
    27    17    20 1   
    28    18    30 1   
    29    20    26 1   
    30    20    27 1   
    31    29     4 1   
@<TRIPOS>SUBSTRUCTURE
     1 1CN         1 TEMP              0 ****  ****    0 ROOT
