@<TRIPOS>MOLECULE
1CO
   21    20     1     0     0
SMALL
bcc


@<TRIPOS>ATOM
      1 C2           1.5250     0.1250    -0.0520 c3         1 1CO      -0.069400
      2 C6          -0.5460    -0.0500     1.3800 c3         1 1CO      -0.117100
      3 C5          -1.9720    -1.3870    -0.8700 c          1 1CO       0.909600
      4 C4          -0.4500    -1.1690    -0.8600 c3         1 1CO      -0.226400
      5 C3          -0.0140     0.0490    -0.0460 c3         1 1CO       0.185800
      6 C1           2.0290     1.4140     0.5380 c3         1 1CO       0.040700
      7 O4          -2.7310    -0.3700    -0.9200 o          1 1CO      -0.847300
      8 O3          -2.3980    -2.5740    -0.8480 o          1 1CO      -0.847300
      9 O7          -0.4770     1.2580    -0.6410 oh         1 1CO      -0.655800
     10 S2           3.8080     1.4200     0.4130 sh         1 1CO      -0.435900
     11 H1           1.8790     0.0380    -1.1130 hc         1 1CO       0.049200
     12 H2           1.9230    -0.7500     0.5230 hc         1 1CO       0.049200
     13 H3          -0.0910    -0.9230     1.9020 hc         1 1CO       0.037367
     14 H4          -1.6560    -0.1830     1.3410 hc         1 1CO       0.037367
     15 H5          -0.3150     0.8810     1.9490 hc         1 1CO       0.037367
     16 H6           0.0450    -2.0830    -0.4500 hc         1 1CO       0.037200
     17 H7          -0.1240    -1.0330    -1.9210 hc         1 1CO       0.037200
     18 H8           1.7340     1.5030     1.6100 h1         1 1CO       0.067700
     19 H9           1.5970     2.2800    -0.0190 h1         1 1CO       0.067700
     20 H11         -1.4160     1.1160    -0.8570 ho         1 1CO       0.458000
     21 H12          4.0360     2.6550     0.8170 hs         1 1CO       0.186800
@<TRIPOS>BOND
     1     1     5 1   
     2     1     6 1   
     3     1    11 1   
     4     1    12 1   
     5     2     5 1   
     6     2    13 1   
     7     2    14 1   
     8     2    15 1   
     9     3     4 1   
    10     3     7 1   
    11     3     8 1   
    12     4     5 1   
    13     4    16 1   
    14     4    17 1   
    15     5     9 1   
    16     6    10 1   
    17     6    18 1   
    18     6    19 1   
    19     9    20 1   
    20    10    21 1   
@<TRIPOS>SUBSTRUCTURE
     1 1CO         1 TEMP              0 ****  ****    0 ROOT
