@<TRIPOS>MOLECULE
molecule
   21    20     1     0     0
SMALL
bcc


@<TRIPOS>ATOM
      1 C2           1.5300     0.0000     0.0000 c3         1 1CO      -0.100400
      2 C6          -0.5100     0.0000     1.4430 c3         1 1CO      -0.078100
      3 C5          -2.0170    -1.2510    -0.7200 c          1 1CO       0.890600
      4 C4          -0.5100    -1.2500    -0.7200 c3         1 1CO      -0.210400
      5 C3           0.0000     0.0000     0.0000 c3         1 1CO       0.174800
      6 C1           2.0400     1.1830     0.8270 c3         1 1CO       0.064700
      7 O4          -2.6880    -2.2580    -1.3010 o          1 1CO      -0.843300
      8 O3          -2.6220    -0.3440    -0.1970 o          1 1CO      -0.843300
      9 O7          -0.4770     1.1660    -0.6730 oh         1 1CO      -0.582800
     10 S2           3.8540     1.1840     0.8260 sh         1 1CO      -0.481900
     11 H1           1.8910     0.0880    -1.0170 hc         1 1CO       0.048700
     12 H2           1.8910    -0.9250     0.4320 hc         1 1CO       0.048700
     13 H3          -0.6460     1.0210     1.7780 hc         1 1CO       0.043367
     14 H4          -1.4560    -0.5250     1.4910 hc         1 1CO       0.043367
     15 H5           0.2110    -0.4960     2.0810 hc         1 1CO       0.043367
     16 H6          -0.1490    -1.2500    -1.7420 hc         1 1CO       0.034200
     17 H7          -0.1480    -2.1340    -0.2100 hc         1 1CO       0.034200
     18 H8           1.6790     1.0940     1.8450 h1         1 1CO       0.062700
     19 H9           1.6780     2.1080     0.3950 h1         1 1CO       0.062700
     20 H11         -0.2040     1.1410    -1.5760 ho         1 1CO       0.385000
     21 H12          4.2970     2.2800     1.4300 hs         1 1CO       0.203800
@<TRIPOS>BOND
     1     8     3 1
     2     4     3 1
     3     4     5 1
     4     3     7 1
     5     1     5 1
     6     1     6 1
     7    10     6 1
     8     5     9 1
     9     5     2 1
    10     1    11 1
    11     1    12 1
    12     2    13 1
    13     2    14 1
    14     2    15 1
    15     4    16 1
    16     4    17 1
    17     6    18 1
    18     6    19 1
    19     9    20 1
    20    10    21 1
@<TRIPOS>SUBSTRUCTURE
     1 1CO         1 TEMP              0 ****  ****    0 ROOT
