@<TRIPOS>MOLECULE
1CO
   21    20     1     0     0
SMALL
bcc


@<TRIPOS>ATOM
      1 C2          1.5900   -0.0180    0.1440 c3        1 1CO     -0.069400
      2 C6         -0.5770   -0.0970    1.4350 c3        1 1CO     -0.117100
      3 C5         -1.9380   -1.2650   -0.9460 c         1 1CO      0.909600
      4 C4         -0.4090   -1.1510   -0.8320 c3        1 1CO     -0.226400
      5 C3          0.0530    0.0100    0.0500 c3        1 1CO      0.185800
      6 C1          2.1380    1.2140    0.8120 c3        1 1CO      0.040700
      7 O4         -2.4410   -2.4210   -0.9900 o         1 1CO     -0.847300
      8 O3         -2.6230   -0.1980   -1.0090 o         1 1CO     -0.847300
      9 O7         -0.2900    1.2650   -0.5300 oh        1 1CO     -0.655800
     10 S2          3.9170    1.1040    0.7990 sh        1 1CO     -0.435900
     11 H1          2.0060   -0.0950   -0.8940 hc        1 1CO      0.049200
     12 H2          1.8910   -0.9370    0.7100 hc        1 1CO      0.049200
     13 H3         -1.6890   -0.1540    1.3210 hc        1 1CO      0.037367
     14 H4         -0.3240    0.7990    2.0500 hc        1 1CO      0.037367
     15 H5         -0.2150   -1.0140    1.9540 hc        1 1CO      0.037367
     16 H6         -0.0020   -2.1080   -0.4230 hc        1 1CO      0.037200
     17 H7         -0.0050   -1.0040   -1.8650 hc        1 1CO      0.037200
     18 H8          1.7990    2.1250    0.2620 h1        1 1CO      0.067700
     19 H9          1.7800    1.2870    1.8660 h1        1 1CO      0.067700
     20 H11        -1.2210    1.1940   -0.8100 ho        1 1CO      0.458000
     21 H12         4.1990    2.3060    1.2630 hs        1 1CO      0.186800
@<TRIPOS>BOND
     1    1    5 1   
     2    1    6 1   
     3    1   11 1   
     4    1   12 1   
     5    2    5 1   
     6    2   13 1   
     7    2   14 1   
     8    2   15 1   
     9    3    4 1   
    10    3    7 1   
    11    3    8 1   
    12    4    5 1   
    13    4   16 1   
    14    4   17 1   
    15    5    9 1   
    16    6   10 1   
    17    6   18 1   
    18    6   19 1   
    19    9   20 1   
    20   10   21 1   
@<TRIPOS>SUBSTRUCTURE
     1 1CO         1 TEMP              0 ****  ****    0 ROOT
