@<TRIPOS>MOLECULE
1CP
   88    92     1     0     0
SMALL
bcc


@<TRIPOS>ATOM
      1 O18         -0.1750    -1.8590    -0.0390 o          1 1CP      -0.867550
      2 C43          0.6160    -0.9040    -0.3070 c          1 1CP       0.904600
      3 O28          0.7330     0.1150     0.4360 o          1 1CP      -0.867550
      4 C42          1.4180    -0.9790    -1.6130 c3         1 1CP      -0.180400
      5 C41          2.8580    -0.5350    -1.4430 c3         1 1CP      -0.003100
      6 C8           3.5190    -0.2290    -2.7260 cc         1 1CP      -0.104300
      7 C7           3.3450     0.9860    -3.4820 cc         1 1CP      -0.144300
      8 C7A          2.5030     2.1250    -3.1130 c3         1 1CP      -0.022800
      9 C9           4.4180    -1.0360    -3.4530 cd         1 1CP      -0.140100
     10 C10          4.8990    -2.3990    -3.1300 c3         1 1CP       0.061200
     11 N22          4.7950    -0.3450    -4.6110 na         1 1CP      -0.178600
     12 C6           4.1320     0.8790    -4.6460 cd         1 1CP      -0.129100
     13 C5           4.1950     1.8550    -5.7580 c3         1 1CP       0.061200
     14 C4           5.4380     1.8670    -6.5590 cc         1 1CP      -0.140100
     15 N21          6.7070     1.6060    -6.0300 na         1 1CP      -0.178600
     16 C3           5.5810     2.1850    -7.9260 cd         1 1CP      -0.104300
     17 C31          4.5110     2.5230    -8.8830 c3         1 1CP      -0.003100
     18 C32          4.5000     3.9870    -9.2700 c3         1 1CP      -0.180400
     19 C33          3.4780     4.3060   -10.3700 c          1 1CP       0.904600
     20 O23          3.0020     5.4820   -10.4070 o          1 1CP      -0.867550
     21 O13          3.1590     3.4150   -11.2110 o          1 1CP      -0.867550
     22 C2           6.9900     2.1150    -8.2250 cd         1 1CP      -0.144300
     23 C2A          7.6100     2.3640    -9.5280 c3         1 1CP      -0.022800
     24 C1           7.6610     1.7710    -7.0340 cc         1 1CP      -0.129100
     25 C20          9.1230     1.6470    -6.8230 c3         1 1CP       0.061200
     26 C19          9.6050     0.2840    -6.5000 cc         1 1CP      -0.140100
     27 N24          9.2270    -0.4070    -5.3420 na         1 1CP      -0.178600
     28 C18         10.5050    -0.5220    -7.2260 cd         1 1CP      -0.104300
     29 C61         11.1670    -0.2150    -8.5090 c3         1 1CP      -0.003100
     30 C62         12.6060     0.2300    -8.3370 c3         1 1CP      -0.180400
     31 C63         13.4090     0.1560    -9.6430 c          1 1CP       0.904600
     32 O1R         14.1990     1.1110    -9.9100 o          1 1CP      -0.867550
     33 O2R         13.2930    -0.8630   -10.3870 o          1 1CP      -0.867550
     34 C17         10.6790    -1.7370    -6.4710 cd         1 1CP      -0.144300
     35 C86         11.5210    -2.8760    -6.8400 c3         1 1CP      -0.022800
     36 C16          9.8900    -1.6310    -5.3070 cc         1 1CP      -0.129100
     37 C15          9.8270    -2.6080    -4.1970 c3         1 1CP       0.061200
     38 C14          8.5840    -2.6200    -3.3950 cc         1 1CP      -0.140100
     39 N23          7.3160    -2.3580    -3.9230 na         1 1CP      -0.178600
     40 C11          6.3610    -2.5230    -2.9190 cc         1 1CP      -0.129100
     41 C12          7.0330    -2.8670    -1.7280 cd         1 1CP      -0.144300
     42 C81          6.4130    -3.1180    -0.4260 c3         1 1CP      -0.022800
     43 C13          8.4410    -2.9380    -2.0280 cd         1 1CP      -0.104300
     44 C91          9.5120    -3.2770    -1.0720 c3         1 1CP      -0.003100
     45 C92          9.5230    -4.7420    -0.6850 c3         1 1CP      -0.180400
     46 C53         10.5450    -5.0610     0.4140 c          1 1CP       0.904600
     47 O2M         10.8640    -4.1720     1.2570 o          1 1CP      -0.867550
     48 O1M         11.0200    -6.2380     0.4500 o          1 1CP      -0.867550
     49 H421         0.9060    -0.3150    -2.3570 hc         1 1CP       0.024950
     50 H422         1.3830    -2.0260    -2.0080 hc         1 1CP       0.024950
     51 H411         2.8650     0.3830    -0.7910 hc         1 1CP       0.048325
     52 H412         3.4300    -1.3300    -0.8950 hc         1 1CP       0.048325
     53 H7A1         1.8310     2.4100    -3.9620 hc         1 1CP       0.037033
     54 H7A2         3.1340     3.0150    -2.8610 hc         1 1CP       0.037033
     55 H7A3         1.8700     1.8720    -2.2250 hc         1 1CP       0.037033
     56 H101         4.3880    -2.7290    -2.1820 hc         1 1CP       0.063450
     57 H102         4.5800    -3.1080    -3.9460 hc         1 1CP       0.063450
     58 H22          5.3400    -0.7120    -5.3460 hn         1 1CP       0.287700
     59 H51          3.3310     1.6570    -6.4550 hc         1 1CP       0.063450
     60 H52          4.0330     2.8820    -5.3190 hc         1 1CP       0.063450
     61 H21          6.8940     1.4360    -5.0790 hn         1 1CP       0.287700
     62 H311         3.5090     2.2530    -8.4530 hc         1 1CP       0.048325
     63 H312         4.6350     1.9130    -9.8200 hc         1 1CP       0.048325
     64 H321         5.5120     4.2790    -9.6530 hc         1 1CP       0.024950
     65 H322         4.2790     4.6220    -8.3760 hc         1 1CP       0.024950
     66 H2A1         8.0460     3.3960    -9.5620 hc         1 1CP       0.037033
     67 H2A2         6.8480     2.2840   -10.3430 hc         1 1CP       0.037033
     68 H2A3         8.4320     1.6320    -9.7280 hc         1 1CP       0.037033
     69 H201         9.6350     1.9780    -7.7710 hc         1 1CP       0.063450
     70 H202         9.4420     2.3570    -6.0060 hc         1 1CP       0.063450
     71 H24          8.6820    -0.0410    -4.6070 hn         1 1CP       0.287700
     72 H611        10.5940     0.5800    -9.0570 hc         1 1CP       0.048325
     73 H612        11.1600    -1.1330    -9.1610 hc         1 1CP       0.048325
     74 H621        13.1170    -0.4340    -7.5940 hc         1 1CP       0.024950
     75 H622        12.6400     1.2760    -7.9420 hc         1 1CP       0.024950
     76 H861        12.1550    -2.6230    -7.7280 hc         1 1CP       0.037033
     77 H862        12.1920    -3.1620    -5.9900 hc         1 1CP       0.037033
     78 H863        10.8910    -3.7660    -7.0930 hc         1 1CP       0.037033
     79 H151        10.6920    -2.4110    -3.4990 hc         1 1CP       0.063450
     80 H152         9.9880    -3.6340    -4.6360 hc         1 1CP       0.063450
     81 H23          7.1280    -2.1880    -4.8740 hn         1 1CP       0.287700
     82 H811         5.9760    -4.1490    -0.3920 hc         1 1CP       0.037033
     83 H812         5.5910    -2.3850    -0.2240 hc         1 1CP       0.037033
     84 H813         7.1760    -3.0390     0.3900 hc         1 1CP       0.037033
     85 H911        10.5140    -3.0080    -1.5020 hc         1 1CP       0.048325
     86 H912         9.3880    -2.6680    -0.1340 hc         1 1CP       0.048325
     87 H921         9.7430    -5.3760    -1.5800 hc         1 1CP       0.024950
     88 H922         8.5100    -5.0340    -0.3030 hc         1 1CP       0.024950
@<TRIPOS>BOND
     1     1     2 1   
     2     2     3 1   
     3     2     4 1   
     4     4     5 1   
     5     4    49 1   
     6     4    50 1   
     7     5     6 1   
     8     5    51 1   
     9     5    52 1   
    10     6     7 1   
    11     6     9 2   
    12     7     8 1   
    13     7    12 2   
    14     8    53 1   
    15     8    54 1   
    16     8    55 1   
    17     9    10 1   
    18     9    11 1   
    19    10    40 1   
    20    10    56 1   
    21    10    57 1   
    22    11    12 1   
    23    11    58 1   
    24    12    13 1   
    25    13    14 1   
    26    13    59 1   
    27    13    60 1   
    28    14    15 1   
    29    14    16 2   
    30    15    24 1   
    31    15    61 1   
    32    16    17 1   
    33    16    22 1   
    34    17    18 1   
    35    17    62 1   
    36    17    63 1   
    37    18    19 1   
    38    18    64 1   
    39    18    65 1   
    40    19    20 1   
    41    19    21 1   
    42    22    23 1   
    43    22    24 2   
    44    23    66 1   
    45    23    67 1   
    46    23    68 1   
    47    24    25 1   
    48    25    26 1   
    49    25    69 1   
    50    25    70 1   
    51    26    27 1   
    52    26    28 2   
    53    27    36 1   
    54    27    71 1   
    55    28    29 1   
    56    28    34 1   
    57    29    30 1   
    58    29    72 1   
    59    29    73 1   
    60    30    31 1   
    61    30    74 1   
    62    30    75 1   
    63    31    32 1   
    64    31    33 1   
    65    34    35 1   
    66    34    36 2   
    67    35    76 1   
    68    35    77 1   
    69    35    78 1   
    70    36    37 1   
    71    37    38 1   
    72    37    79 1   
    73    37    80 1   
    74    38    39 1   
    75    38    43 2   
    76    39    40 1   
    77    39    81 1   
    78    40    41 2   
    79    41    42 1   
    80    41    43 1   
    81    42    82 1   
    82    42    83 1   
    83    42    84 1   
    84    43    44 1   
    85    44    45 1   
    86    44    85 1   
    87    44    86 1   
    88    45    46 1   
    89    45    87 1   
    90    45    88 1   
    91    46    47 1   
    92    46    48 1   
@<TRIPOS>SUBSTRUCTURE
     1 1CP         1 TEMP              0 ****  ****    0 ROOT
