@<TRIPOS>MOLECULE
1CP
   88    92     1     0     0
SMALL
bcc


@<TRIPOS>ATOM
      1 O18         0.9420    0.0260    1.7910 o         1 1CP     -0.867800
      2 C43         2.1190    0.2780    1.3920 c         1 1CP      0.904100
      3 O28         3.0700    0.5280    2.1920 o         1 1CP     -0.867800
      4 C42         2.3780    0.3070   -0.1210 c3        1 1CP     -0.180900
      5 C41         3.7320   -0.2710   -0.4730 c3        1 1CP     -0.004600
      6 C8          4.1480   -0.0650   -1.8720 cc        1 1CP     -0.104800
      7 C7          4.6390    1.1560   -2.4550 cc        1 1CP     -0.142300
      8 C7A         4.7260    2.4610   -1.7970 c3        1 1CP     -0.023800
      9 C9          4.2330   -1.0570   -2.8730 cd        1 1CP     -0.139100
     10 C10         3.8570   -2.4810   -2.7270 c3        1 1CP      0.061200
     11 N22         4.7580   -0.4770   -4.0300 na        1 1CP     -0.177600
     12 C6          5.0230    0.8690   -3.7820 cd        1 1CP     -0.130100
     13 C5          5.6630    1.7980   -4.7430 c3        1 1CP      0.061200
     14 C4          5.0520    1.8670   -6.0900 cc        1 1CP     -0.139100
     15 N21         5.0700    0.7970   -6.9960 na        1 1CP     -0.177600
     16 C3          4.4030    2.9570   -6.7020 cd        1 1CP     -0.104800
     17 C31         4.1550    4.2990   -6.1400 c3        1 1CP     -0.004600
     18 C32         5.1310    5.3370   -6.6590 c3        1 1CP     -0.180900
     19 C33         4.6350    6.7750   -6.4570 c         1 1CP      0.904100
     20 O23         3.4380    7.0660   -6.7520 o         1 1CP     -0.867800
     21 O13         5.4660    7.6370   -6.0370 o         1 1CP     -0.867800
     22 C2          4.0290    2.5310   -8.0280 cd        1 1CP     -0.142300
     23 C2A         3.3210    3.3360   -9.0260 c3        1 1CP     -0.023800
     24 C1          4.4730    1.2040   -8.1900 cc        1 1CP     -0.130100
     25 C20         4.4110    0.3910   -9.4240 c3        1 1CP      0.061200
     26 C19         4.0340   -1.0330   -9.2780 cc        1 1CP     -0.139100
     27 N24         3.5100   -1.6130   -8.1200 na        1 1CP     -0.177600
     28 C18         4.1170   -2.0250  -10.2790 cd        1 1CP     -0.104800
     29 C61         4.5320   -1.8180  -11.6790 c3        1 1CP     -0.004600
     30 C62         5.8840   -2.3980  -12.0330 c3        1 1CP     -0.180900
     31 C63         6.1400   -2.3680  -13.5470 c         1 1CP      0.904100
     32 O1R         7.3170   -2.1170  -13.9470 o         1 1CP     -0.867800
     33 O2R         5.1880   -2.6160  -14.3460 o         1 1CP     -0.867800
     34 C17         3.6250   -3.2460   -9.6970 cd        1 1CP     -0.142300
     35 C86         3.5370   -4.5500  -10.3550 c3        1 1CP     -0.023800
     36 C16         3.2440   -2.9590   -8.3690 cc        1 1CP     -0.130100
     37 C15         2.6040   -3.8880   -7.4070 c3        1 1CP      0.061200
     38 C14         3.2160   -3.9570   -6.0610 cc        1 1CP     -0.139100
     39 N23         3.1970   -2.8880   -5.1550 na        1 1CP     -0.177600
     40 C11         3.7950   -3.2940   -3.9610 cc        1 1CP     -0.130100
     41 C12         4.2400   -4.6210   -4.1230 cd        1 1CP     -0.142300
     42 C81         4.9490   -5.4250   -3.1260 c3        1 1CP     -0.023800
     43 C13         3.8660   -5.0470   -5.4500 cd        1 1CP     -0.104800
     44 C91         4.1150   -6.3890   -6.0110 c3        1 1CP     -0.004600
     45 C92         3.1390   -7.4270   -5.4920 c3        1 1CP     -0.180900
     46 C53         3.6360   -8.8650   -5.6940 c         1 1CP      0.904100
     47 O2M         4.8340   -9.1540   -5.3990 o         1 1CP     -0.867800
     48 O1M         2.8070   -9.7280   -6.1140 o         1 1CP     -0.867800
     49 H421        1.5670   -0.2580   -0.6440 hc        1 1CP      0.026450
     50 H422        2.3200    1.3740   -0.4560 hc        1 1CP      0.026450
     51 H411        3.7230   -1.3720   -0.2480 hc        1 1CP      0.048200
     52 H412        4.4950    0.1980    0.2100 hc        1 1CP      0.048200
     53 H7A1        5.7880    2.8110   -1.7490 hc        1 1CP      0.037117
     54 H7A2        4.1370    3.2280   -2.3620 hc        1 1CP      0.037117
     55 H7A3        4.3240    2.3990   -0.7540 hc        1 1CP      0.037117
     56 H101        2.8510   -2.5180   -2.2150 hc        1 1CP      0.063075
     57 H102        4.5970   -2.9730   -2.0320 hc        1 1CP      0.063075
     58 H22         5.0010   -0.9700   -4.8470 hn        1 1CP      0.287200
     59 H51         6.7520    1.5200   -4.8440 hc        1 1CP      0.063075
     60 H52         5.6220    2.8310   -4.2940 hc        1 1CP      0.063075
     61 H21         5.5920   -0.0310   -6.8880 hn        1 1CP      0.287200
     62 H311        3.1130    4.6320   -6.4110 hc        1 1CP      0.048200
     63 H312        4.2070    4.2650   -5.0190 hc        1 1CP      0.048200
     64 H321        5.2840    5.1910   -7.7600 hc        1 1CP      0.026450
     65 H322        6.1230    5.2150   -6.1570 hc        1 1CP      0.026450
     66 H2A1        3.8810    3.3480   -9.9950 hc        1 1CP      0.037117
     67 H2A2        2.3030    2.9130   -9.2230 hc        1 1CP      0.037117
     68 H2A3        3.2070    4.3910   -8.6670 hc        1 1CP      0.037117
     69 H201        3.6720    0.8830  -10.1190 hc        1 1CP      0.063075
     70 H202        5.4170    0.4270   -9.9360 hc        1 1CP      0.063075
     71 H24         3.2680   -1.1200   -7.3030 hn        1 1CP      0.287200
     72 H611        3.7670   -2.2860  -12.3620 hc        1 1CP      0.048200
     73 H612        4.5410   -0.7170  -11.9030 hc        1 1CP      0.048200
     74 H621        5.9410   -3.4650  -11.6990 hc        1 1CP      0.026450
     75 H622        6.6970   -1.8340  -11.5110 hc        1 1CP      0.026450
     76 H861        2.4750   -4.9000  -10.4010 hc        1 1CP      0.037117
     77 H862        4.1280   -5.3170   -9.7920 hc        1 1CP      0.037117
     78 H863        3.9360   -4.4880  -11.3990 hc        1 1CP      0.037117
     79 H151        1.5150   -3.6100   -7.3070 hc        1 1CP      0.063075
     80 H152        2.6450   -4.9210   -7.8560 hc        1 1CP      0.063075
     81 H23         2.6740   -2.0590   -5.2620 hn        1 1CP      0.287200
     82 H811        5.9660   -5.0020   -2.9290 hc        1 1CP      0.037117
     83 H812        5.0630   -6.4800   -3.4850 hc        1 1CP      0.037117
     84 H813        4.3880   -5.4380   -2.1570 hc        1 1CP      0.037117
     85 H911        4.0620   -6.3540   -7.1320 hc        1 1CP      0.048200
     86 H912        5.1570   -6.7200   -5.7410 hc        1 1CP      0.048200
     87 H921        2.9860   -7.2810   -4.3910 hc        1 1CP      0.026450
     88 H922        2.1470   -7.3060   -5.9940 hc        1 1CP      0.026450
@<TRIPOS>BOND
     1    1    2 1   
     2    2    3 1   
     3    2    4 1   
     4    4    5 1   
     5    4   49 1   
     6    4   50 1   
     7    5    6 1   
     8    5   51 1   
     9    5   52 1   
    10    6    7 1   
    11    6    9 2   
    12    7    8 1   
    13    7   12 2   
    14    8   53 1   
    15    8   54 1   
    16    8   55 1   
    17    9   10 1   
    18    9   11 1   
    19   10   40 1   
    20   10   56 1   
    21   10   57 1   
    22   11   12 1   
    23   11   58 1   
    24   12   13 1   
    25   13   14 1   
    26   13   59 1   
    27   13   60 1   
    28   14   15 1   
    29   14   16 2   
    30   15   24 1   
    31   15   61 1   
    32   16   17 1   
    33   16   22 1   
    34   17   18 1   
    35   17   62 1   
    36   17   63 1   
    37   18   19 1   
    38   18   64 1   
    39   18   65 1   
    40   19   20 1   
    41   19   21 1   
    42   22   23 1   
    43   22   24 2   
    44   23   66 1   
    45   23   67 1   
    46   23   68 1   
    47   24   25 1   
    48   25   26 1   
    49   25   69 1   
    50   25   70 1   
    51   26   27 1   
    52   26   28 2   
    53   27   36 1   
    54   27   71 1   
    55   28   29 1   
    56   28   34 1   
    57   29   30 1   
    58   29   72 1   
    59   29   73 1   
    60   30   31 1   
    61   30   74 1   
    62   30   75 1   
    63   31   32 1   
    64   31   33 1   
    65   34   35 1   
    66   34   36 2   
    67   35   76 1   
    68   35   77 1   
    69   35   78 1   
    70   36   37 1   
    71   37   38 1   
    72   37   79 1   
    73   37   80 1   
    74   38   39 1   
    75   38   43 2   
    76   39   40 1   
    77   39   81 1   
    78   40   41 2   
    79   41   42 1   
    80   41   43 1   
    81   42   82 1   
    82   42   83 1   
    83   42   84 1   
    84   43   44 1   
    85   44   45 1   
    86   44   85 1   
    87   44   86 1   
    88   45   46 1   
    89   45   87 1   
    90   45   88 1   
    91   46   47 1   
    92   46   48 1   
@<TRIPOS>SUBSTRUCTURE
     1 1CP         1 TEMP              0 ****  ****    0 ROOT
