@<TRIPOS>MOLECULE
molecule
   88    92     1     0     0
SMALL
bcc


@<TRIPOS>ATOM
      1 O18          0.0000     0.0000     0.0000 o          1 1CP      -0.873550
      2 C43          1.3420     0.0000     0.0000 c          1 1CP       0.892350
      3 O28          1.9470     0.0000     1.0450 o          1 1CP      -0.873550
      4 C42          2.0950    -0.0010    -1.3060 c3         1 1CP      -0.176400
      5 C41          3.5990    -0.0010    -1.0270 c3         1 1CP       0.006400
      6 C8           4.3530    -0.0020    -2.3330 cc         1 1CP      -0.133300
      7 C7           4.7700     1.1330    -3.0550 cc         1 1CP      -0.159800
      8 C7A          4.5450     2.5710    -2.6660 c3         1 1CP      -0.009800
      9 C9           4.7550    -1.0890    -3.0210 cd         1 1CP      -0.136100
     10 C10          4.5350    -2.5250    -2.6200 c3         1 1CP       0.071700
     11 N22          5.3980    -0.6660    -4.1470 na         1 1CP      -0.156350
     12 C6           5.4080     0.6970    -4.1600 cd         1 1CP      -0.125850
     13 C5           6.0340     1.5650    -5.2190 c3         1 1CP       0.071700
     14 C4           5.1050     1.6790    -6.4000 cc         1 1CP      -0.136100
     15 N21          4.7740     0.6760    -7.2630 na         1 1CP      -0.156350
     16 C3           4.4540     2.7970    -6.7840 cd         1 1CP      -0.133300
     17 C31          4.5190     4.1430    -6.1100 c3         1 1CP       0.006400
     18 C32          5.6600     4.9630    -6.7160 c3         1 1CP      -0.176400
     19 C33          5.7250     6.3090    -6.0410 c          1 1CP       0.892350
     20 O23          4.9400     6.5850    -5.1660 o          1 1CP      -0.873550
     21 O13          6.6560     7.2020    -6.4130 o          1 1CP      -0.873550
     22 C2           3.7050     2.4760    -7.9320 cd         1 1CP      -0.159800
     23 C2A          2.8200     3.4140    -8.7120 c3         1 1CP      -0.009800
     24 C1           3.9240     1.1720    -8.2050 cc         1 1CP      -0.125850
     25 C20          3.3330     0.4090    -9.3610 c3         1 1CP       0.071700
     26 C19          3.2020    -1.0480    -9.0060 cc         1 1CP      -0.136100
     27 N24          2.6070    -1.5530    -7.8880 na         1 1CP      -0.156350
     28 C18          3.6550    -2.0820    -9.7460 cd         1 1CP      -0.133300
     29 C61          4.3820    -1.9860   -11.0610 c3         1 1CP       0.006400
     30 C62          5.8880    -1.9030   -10.8070 c3         1 1CP      -0.176400
     31 C63          6.6170    -1.8070   -12.1220 c          1 1CP       0.892350
     32 O1R          7.9560    -1.7240   -12.1450 o          1 1CP      -0.873550
     33 O2R          5.9940    -1.8050   -13.1590 o          1 1CP      -0.873550
     34 C17          3.3210    -3.2680    -9.0620 cd         1 1CP      -0.159800
     35 C86          3.6260    -4.6730    -9.5130 c3         1 1CP      -0.009800
     36 C16          2.6780    -2.9140    -7.9300 cc         1 1CP      -0.125850
     37 C15          2.1310    -3.8620    -6.8950 c3         1 1CP       0.071700
     38 C14          3.0540    -3.8960    -5.7040 cc         1 1CP      -0.136100
     39 N23          3.1600    -2.9280    -4.7490 na         1 1CP      -0.156350
     40 C11          4.1140    -3.3190    -3.8310 cc         1 1CP      -0.125850
     41 C12          4.6010    -4.5210    -4.2000 cd         1 1CP      -0.159800
     42 C81          5.6580    -5.3160    -3.4770 c3         1 1CP      -0.009800
     43 C13          3.9150    -4.8860    -5.3980 cd         1 1CP      -0.133300
     44 C91          4.1290    -6.1570    -6.1790 c3         1 1CP       0.006400
     45 C92          3.2470    -7.2660    -5.6020 c3         1 1CP      -0.176400
     46 C53          3.4530    -8.5340    -6.3890 c          1 1CP       0.892350
     47 O2M          4.2250    -8.5500    -7.3180 o          1 1CP      -0.873550
     48 O1M          2.7780    -9.6470    -6.0590 o          1 1CP      -0.873550
     49 H421         1.8330     0.8840    -1.8750 hc         1 1CP       0.033575
     50 H422         1.8330    -0.8850    -1.8740 hc         1 1CP       0.033575
     51 H411         3.8610     0.8840    -0.4600 hc         1 1CP       0.045575
     52 H412         3.8610    -0.8850    -0.4590 hc         1 1CP       0.045575
     53 H7A1         3.6460     2.9380    -3.1460 hc         1 1CP       0.032700
     54 H7A2         5.3920     3.1680    -2.9810 hc         1 1CP       0.032700
     55 H7A3         4.4340     2.6410    -1.5900 hc         1 1CP       0.032700
     56 H101         5.4540    -2.9340    -2.2200 hc         1 1CP       0.061575
     57 H102         3.7580    -2.5750    -1.8670 hc         1 1CP       0.061575
     58 H22          5.9110    -1.2540    -4.7740 hn         1 1CP       0.294700
     59 H51          6.9710     1.1240    -5.5390 hc         1 1CP       0.061575
     60 H52          6.2220     2.5510    -4.8120 hc         1 1CP       0.061575
     61 H21          5.1080    -0.2660    -7.2170 hn         1 1CP       0.294700
     62 H311         4.6950     4.0070    -5.0500 hc         1 1CP       0.045575
     63 H312         3.5820     4.6660    -6.2560 hc         1 1CP       0.045575
     64 H321         6.5980     4.4400    -6.5700 hc         1 1CP       0.033575
     65 H322         5.4840     5.0980    -7.7760 hc         1 1CP       0.033575
     66 H2A1         2.6050     4.2900    -8.1120 hc         1 1CP       0.032700
     67 H2A2         1.8940     2.9120    -8.9630 hc         1 1CP       0.032700
     68 H2A3         3.3260     3.7150    -9.6210 hc         1 1CP       0.032700
     69 H201         3.9780     0.5110   -10.2260 hc         1 1CP       0.061575
     70 H202         2.3540     0.8110    -9.5940 hc         1 1CP       0.061575
     71 H24          2.1800    -1.0140    -7.1610 hn         1 1CP       0.294700
     72 H611         4.0560    -1.0990   -11.5900 hc         1 1CP       0.045575
     73 H612         4.1650    -2.8630   -11.6590 hc         1 1CP       0.045575
     74 H621         6.2140    -2.7910   -10.2780 hc         1 1CP       0.033575
     75 H622         6.1060    -1.0260   -10.2100 hc         1 1CP       0.033575
     76 H861         2.8620    -5.3450    -9.1420 hc         1 1CP       0.032700
     77 H862         3.6440    -4.7090   -10.5950 hc         1 1CP       0.032700
     78 H863         4.5920    -4.9750    -9.1250 hc         1 1CP       0.032700
     79 H151         2.0550    -4.8560    -7.3210 hc         1 1CP       0.061575
     80 H152         1.1500    -3.5270    -6.5820 hc         1 1CP       0.061575
     81 H23          2.6270    -2.0810    -4.7140 hn         1 1CP       0.294700
     82 H811         5.9990    -6.1250    -4.1110 hc         1 1CP       0.032700
     83 H812         5.2420    -5.7230    -2.5640 hc         1 1CP       0.032700
     84 H813         6.4940    -4.6700    -3.2360 hc         1 1CP       0.032700
     85 H911         3.8670    -5.9910    -7.2170 hc         1 1CP       0.045575
     86 H912         5.1690    -6.4520    -6.1120 hc         1 1CP       0.045575
     87 H921         2.2070    -6.9690    -5.6620 hc         1 1CP       0.033575
     88 H922         3.5140    -7.4370    -4.5660 hc         1 1CP       0.033575
@<TRIPOS>BOND
     1     1     2 1   
     2     2     3 1   
     3     2     4 1   
     4     4     5 1   
     5     4    49 1   
     6     4    50 1   
     7     5     6 1   
     8     5    51 1   
     9     5    52 1   
    10     6     7 1   
    11     6     9 2   
    12     7     8 1   
    13     7    12 2   
    14     8    53 1   
    15     8    54 1   
    16     8    55 1   
    17     9    10 1   
    18     9    11 1   
    19    10    40 1   
    20    10    56 1   
    21    10    57 1   
    22    11    12 1   
    23    11    58 1   
    24    12    13 1   
    25    13    14 1   
    26    13    59 1   
    27    13    60 1   
    28    14    15 1   
    29    14    16 2   
    30    15    24 1   
    31    15    61 1   
    32    16    17 1   
    33    16    22 1   
    34    17    18 1   
    35    17    62 1   
    36    17    63 1   
    37    18    19 1   
    38    18    64 1   
    39    18    65 1   
    40    19    20 1   
    41    19    21 1   
    42    22    23 1   
    43    22    24 2   
    44    23    66 1   
    45    23    67 1   
    46    23    68 1   
    47    24    25 1   
    48    25    26 1   
    49    25    69 1   
    50    25    70 1   
    51    26    27 1   
    52    26    28 2   
    53    27    36 1   
    54    27    71 1   
    55    28    29 1   
    56    28    34 1   
    57    29    30 1   
    58    29    72 1   
    59    29    73 1   
    60    30    31 1   
    61    30    74 1   
    62    30    75 1   
    63    31    32 1   
    64    31    33 1   
    65    34    35 1   
    66    34    36 2   
    67    35    76 1   
    68    35    77 1   
    69    35    78 1   
    70    36    37 1   
    71    37    38 1   
    72    37    79 1   
    73    37    80 1   
    74    38    39 1   
    75    38    43 2   
    76    39    40 1   
    77    39    81 1   
    78    40    41 2   
    79    41    42 1   
    80    41    43 1   
    81    42    82 1   
    82    42    83 1   
    83    42    84 1   
    84    43    44 1   
    85    44    45 1   
    86    44    85 1   
    87    44    86 1   
    88    45    46 1   
    89    45    87 1   
    90    45    88 1   
    91    46    47 1   
    92    46    48 1   
@<TRIPOS>SUBSTRUCTURE
     1 1CP         1 TEMP              0 ****  ****    0 ROOT
