@<TRIPOS>MOLECULE
molecule
   44    47     1     0     0
SMALL
bcc


@<TRIPOS>ATOM
      1 CAO          0.0000     0.0000     0.0000 ca         1 1CQ      -0.110000
      2 CAP          1.3790     0.0000     0.0000 ca         1 1CQ      -0.154000
      3 CAQ          2.0750     0.0000     1.2010 ca         1 1CQ       0.102100
      4 OAY          3.4340     0.0010     1.1980 oh         1 1CQ      -0.522100
      5 CAR          1.3850     0.0000     2.4060 ca         1 1CQ      -0.154000
      6 CAS          0.0060     0.0010     2.4130 ca         1 1CQ      -0.110000
      7 CAF         -0.6960     0.0000     1.2080 ca         1 1CQ      -0.012000
      8 CAB         -2.1780     0.0050     1.2120 cc         1 1CQ      -0.286300
      9 CAC         -3.0040    -1.0060     1.6840 cd         1 1CQ       0.014700
     10 CAG         -2.5710    -2.2880     2.2760 ca         1 1CQ      -0.050000
     11 CAT         -1.5480    -3.0260     1.6780 ca         1 1CQ      -0.092000
     12 CAU         -1.1470    -4.2220     2.2330 ca         1 1CQ      -0.154500
     13 CAV         -1.7580    -4.6930     3.3880 ca         1 1CQ       0.117100
     14 OAZ         -1.3600    -5.8720     3.9320 oh         1 1CQ      -0.520100
     15 CAW         -2.7760    -3.9610     3.9870 ca         1 1CQ      -0.154500
     16 CAX         -3.1790    -2.7630     3.4400 ca         1 1CQ      -0.092000
     17 NAD         -4.2900    -0.5930     1.4980 na         1 1CQ      -0.035600
     18 NAE         -4.2610     0.6770     0.9090 nd         1 1CQ      -0.563800
     19 CAA         -3.0130     1.0410     0.7420 cc         1 1CQ       0.620200
     20 NAH         -2.5830     2.2520     0.1870 nu         1 1CQ      -0.766300
     21 CAI         -3.5140     3.2450    -0.1360 ca         1 1CQ       0.162600
     22 CAJ         -4.6970     3.3470     0.5840 ca         1 1CQ      -0.153500
     23 CAK         -5.6140     4.3310     0.2680 ca         1 1CQ      -0.126500
     24 CAL         -5.3520     5.2160    -0.7670 ca         1 1CQ       0.071100
     25 OBA         -6.2550     6.1850    -1.0780 oh         1 1CQ      -0.523100
     26 CAM         -4.1710     5.1150    -1.4860 ca         1 1CQ      -0.126500
     27 CAN         -3.2530     4.1310    -1.1720 ca         1 1CQ      -0.153500
     28 H1          -0.5420    -0.0000    -0.9380 ha         1 1CQ       0.140500
     29 H2           1.9200    -0.0000    -0.9390 ha         1 1CQ       0.141500
     30 H3           3.7480     0.8900     1.1970 ho         1 1CQ       0.419000
     31 H4           1.9310     0.0010     3.3420 ha         1 1CQ       0.141500
     32 H5          -0.5320     0.0010     3.3530 ha         1 1CQ       0.140500
     33 H6          -1.0700    -2.6590     0.7770 ha         1 1CQ       0.143000
     34 H7          -0.3530    -4.7940     1.7690 ha         1 1CQ       0.146000
     35 H8          -1.8690    -6.5760     3.5650 ho         1 1CQ       0.422000
     36 H9          -3.2490    -4.3310     4.8880 ha         1 1CQ       0.146000
     37 H10         -3.9720    -2.1930     3.9080 ha         1 1CQ       0.143000
     38 H11         -5.1130    -1.1100     1.7380 hn         1 1CQ       0.335700
     39 H12         -1.6060     2.4170     0.0450 hn         1 1CQ       0.462800
     40 H13         -4.9020     2.6550     1.3930 ha         1 1CQ       0.147000
     41 H14         -6.5370     4.4120     0.8290 ha         1 1CQ       0.140000
     42 H15         -6.8600     5.8550    -1.7210 ho         1 1CQ       0.414000
     43 H16         -3.9680     5.8060    -2.2940 ha         1 1CQ       0.140000
     44 H17         -2.3300     4.0510    -1.7340 ha         1 1CQ       0.147000
@<TRIPOS>BOND
     1    25    24 1   
     2    23    24 ar  
     3    23    22 ar  
     4     4     3 1   
     5    24    26 ar  
     6     2     3 ar  
     7     2     1 ar  
     8     3     5 ar  
     9     1     7 ar  
    10    22    21 ar  
    11    26    27 ar  
    12     5     6 ar  
    13     7     6 ar  
    14     7     8 1   
    15    21    27 ar  
    16    21    20 1   
    17     8     9 2   
    18     8    19 1   
    19    11    10 ar  
    20    11    12 ar  
    21    10     9 1   
    22    10    16 ar  
    23    12    13 ar  
    24     9    17 1   
    25    19    20 1   
    26    19    18 2   
    27    13    15 ar  
    28    13    14 1   
    29    16    15 ar  
    30    17    18 1   
    31     1    28 1   
    32     2    29 1   
    33     4    30 1   
    34     5    31 1   
    35     6    32 1   
    36    11    33 1   
    37    12    34 1   
    38    14    35 1   
    39    15    36 1   
    40    16    37 1   
    41    17    38 1   
    42    20    39 1   
    43    22    40 1   
    44    23    41 1   
    45    25    42 1   
    46    26    43 1   
    47    27    44 1   
@<TRIPOS>SUBSTRUCTURE
     1 1CQ         1 TEMP              0 ****  ****    0 ROOT
