@<TRIPOS>MOLECULE
1CQ
   44    47     1     0     0
SMALL
bcc


@<TRIPOS>ATOM
      1 CAO         -0.1010     0.3610    -0.0550 ca         1 1CQ      -0.075000
      2 CAP          1.2660     0.5920    -0.1450 ca         1 1CQ      -0.190500
      3 CAQ          2.0270     0.6530     1.0350 ca         1 1CQ       0.126100
      4 OAY          3.3740     0.8900     0.8860 oh         1 1CQ      -0.498100
      5 CAR          1.4220     0.4840     2.2880 ca         1 1CQ      -0.190500
      6 CAS          0.0510     0.2520     2.3590 ca         1 1CQ      -0.075000
      7 CAF         -0.7250     0.1910     1.1920 ca         1 1CQ      -0.045000
      8 CAB         -2.1430    -0.0560     1.2710 cc         1 1CQ      -0.163300
      9 CAC         -3.1960     0.6360     0.6310 cd         1 1CQ      -0.038300
     10 CAG         -3.1870     1.7930    -0.2440 ca         1 1CQ      -0.070000
     11 CAT         -4.0640     1.8710    -1.3380 ca         1 1CQ      -0.074000
     12 CAU         -4.0650     2.9840    -2.1690 ca         1 1CQ      -0.186500
     13 CAV         -3.1750     4.0380    -1.9020 ca         1 1CQ       0.136100
     14 OAZ         -3.2250     5.1140    -2.7560 oh         1 1CQ      -0.493100
     15 CAW         -2.2910     3.9730    -0.8150 ca         1 1CQ      -0.186500
     16 CAX         -2.3030     2.8520     0.0080 ca         1 1CQ      -0.074000
     17 NAD         -4.3800    -0.0080     1.0250 na         1 1CQ      -0.001600
     18 NAE         -4.1730    -1.0300     1.8400 nd         1 1CQ      -0.534800
     19 CAA         -2.8080    -1.1110     2.0360 cc         1 1CQ       0.482200
     20 NAH         -2.1530    -2.0320     2.8890 nu         1 1CQ      -0.659300
     21 CAI         -1.6990    -3.2420     2.2960 ca         1 1CQ       0.086600
     22 CAJ         -1.1510    -3.2650     0.9930 ca         1 1CQ      -0.127000
     23 CAK         -0.6130    -4.4300     0.4690 ca         1 1CQ      -0.160500
     24 CAL         -0.6130    -5.6030     1.2410 ca         1 1CQ       0.097100
     25 OBA         -0.0640    -6.7250     0.6600 oh         1 1CQ      -0.499100
     26 CAM         -1.1540    -5.6030     2.5320 ca         1 1CQ      -0.160500
     27 CAN         -1.6980    -4.4340     3.0520 ca         1 1CQ      -0.127000
     28 H1          -0.7060     0.3100    -0.9740 ha         1 1CQ       0.144500
     29 H2           1.7600     0.7220    -1.1170 ha         1 1CQ       0.142000
     30 H3           3.7800     0.8630     1.7650 ho         1 1CQ       0.419000
     31 H4           2.0250     0.5270     3.2050 ha         1 1CQ       0.142000
     32 H5          -0.4270     0.1080     3.3410 ha         1 1CQ       0.144500
     33 H6          -4.7500     1.0380    -1.5570 ha         1 1CQ       0.144000
     34 H7          -4.7450     3.0530    -3.0300 ha         1 1CQ       0.147500
     35 H8          -2.5590     5.7560    -2.4700 ho         1 1CQ       0.423000
     36 H9          -1.5950     4.8000    -0.6150 ha         1 1CQ       0.147500
     37 H10         -1.6070     2.7860     0.8610 ha         1 1CQ       0.144000
     38 H11         -5.3050     0.2580     0.7740 hn         1 1CQ       0.326700
     39 H12         -2.7070    -2.2190     3.7090 hn         1 1CQ       0.394800
     40 H13         -1.1400    -2.3420     0.3890 ha         1 1CQ       0.142000
     41 H14         -0.1840    -4.4480    -0.5430 ha         1 1CQ       0.141500
     42 H15         -0.1280    -7.4490     1.2990 ho         1 1CQ       0.416000
     43 H16         -1.1530    -6.5230     3.1330 ha         1 1CQ       0.141500
     44 H17         -2.1230    -4.4510     4.0670 ha         1 1CQ       0.142000
@<TRIPOS>BOND
     1     1     2 ar  
     2     1     7 ar  
     3     1    28 1   
     4     2     3 ar  
     5     2    29 1   
     6     3     4 1   
     7     3     5 ar  
     8     4    30 1   
     9     5     6 ar  
    10     5    31 1   
    11     6     7 ar  
    12     6    32 1   
    13     7     8 1   
    14     8     9 2   
    15     8    19 1   
    16     9    10 1   
    17     9    17 1   
    18    10    11 ar  
    19    10    16 ar  
    20    11    12 ar  
    21    11    33 1   
    22    12    13 ar  
    23    12    34 1   
    24    13    14 1   
    25    13    15 ar  
    26    14    35 1   
    27    15    16 ar  
    28    15    36 1   
    29    16    37 1   
    30    17    18 1   
    31    17    38 1   
    32    18    19 2   
    33    19    20 1   
    34    20    21 1   
    35    20    39 1   
    36    21    22 ar  
    37    21    27 ar  
    38    22    23 ar  
    39    22    40 1   
    40    23    24 ar  
    41    23    41 1   
    42    24    25 1   
    43    24    26 ar  
    44    25    42 1   
    45    26    27 ar  
    46    26    43 1   
    47    27    44 1   
@<TRIPOS>SUBSTRUCTURE
     1 1CQ         1 TEMP              0 ****  ****    0 ROOT
