@<TRIPOS>MOLECULE
1CQ
   44    47     1     0     0
SMALL
bcc


@<TRIPOS>ATOM
      1 CAO          0.0000     0.0000     0.0000 ca         1 1CQ      -0.082500
      2 CAP          1.3790     0.0000     0.0000 ca         1 1CQ      -0.137000
      3 CAQ          2.0750     0.0000     1.2010 ca         1 1CQ       0.119100
      4 OAY          3.4340     0.0010     1.1980 oh         1 1CQ      -0.500100
      5 CAR          1.3850     0.0000     2.4060 ca         1 1CQ      -0.137000
      6 CAS          0.0060     0.0010     2.4130 ca         1 1CQ      -0.082500
      7 CAF         -0.6960     0.0000     1.2080 ca         1 1CQ      -0.001000
      8 CAB         -2.1780     0.0050     1.2120 cc         1 1CQ      -0.295300
      9 CAC         -3.0040    -1.0060     1.6840 cd         1 1CQ      -0.152300
     10 CAG         -2.5710    -2.2880     2.2760 ca         1 1CQ      -0.042000
     11 CAT         -1.5480    -3.0260     1.6780 ca         1 1CQ      -0.066500
     12 CAU         -1.1470    -4.2220     2.2330 ca         1 1CQ      -0.137000
     13 CAV         -1.7580    -4.6930     3.3880 ca         1 1CQ       0.133100
     14 OAZ         -1.3600    -5.8720     3.9320 oh         1 1CQ      -0.499100
     15 CAW         -2.7760    -3.9610     3.9870 ca         1 1CQ      -0.137000
     16 CAX         -3.1790    -2.7630     3.4400 ca         1 1CQ      -0.066500
     17 NAD         -4.2900    -0.5930     1.4980 na         1 1CQ       0.462400
     18 NAE         -4.2610     0.6770     0.9090 nd         1 1CQ      -0.721800
     19 CAA         -3.0130     1.0410     0.7420 cc         1 1CQ       0.499200
     20 NAH         -2.5830     2.2520     0.1870 nu         1 1CQ      -0.300300
     21 CAI         -3.5140     3.2450    -0.1360 ca         1 1CQ      -0.001400
     22 CAJ         -4.6970     3.3470     0.5840 ca         1 1CQ      -0.121500
     23 CAK         -5.6140     4.3310     0.2680 ca         1 1CQ      -0.111500
     24 CAL         -5.3520     5.2160    -0.7670 ca         1 1CQ       0.091100
     25 OBA         -6.2550     6.1850    -1.0780 oh         1 1CQ      -0.501100
     26 CAM         -4.1710     5.1150    -1.4860 ca         1 1CQ      -0.111500
     27 CAN         -3.2530     4.1310    -1.1720 ca         1 1CQ      -0.121500
     28 H1          -0.5420    -0.0000    -0.9380 ha         1 1CQ       0.111500
     29 H2           1.9200    -0.0000    -0.9390 ha         1 1CQ       0.114500
     30 H3           3.7480     0.8900     1.1970 ho         1 1CQ       0.402000
     31 H4           1.9310     0.0010     3.3420 ha         1 1CQ       0.114500
     32 H5          -0.5320     0.0010     3.3530 ha         1 1CQ       0.111500
     33 H6          -1.0700    -2.6590     0.7770 ha         1 1CQ       0.112000
     34 H7          -0.3530    -4.7940     1.7690 ha         1 1CQ       0.117500
     35 H8          -1.8690    -6.5760     3.5650 ho         1 1CQ       0.404000
     36 H9          -3.2490    -4.3310     4.8880 ha         1 1CQ       0.117500
     37 H10         -3.9720    -2.1930     3.9080 ha         1 1CQ       0.112000
     38 H11         -5.1130    -1.1100     1.7380 hn         1 1CQ       0.148700
     39 H12         -1.6060     2.4170     0.0450 hn         1 1CQ       0.290800
     40 H13         -4.9020     2.6550     1.3930 ha         1 1CQ       0.123000
     41 H14         -6.5370     4.4120     0.8290 ha         1 1CQ       0.110500
     42 H15         -6.8600     5.8550    -1.7210 ho         1 1CQ       0.398000
     43 H16         -3.9680     5.8060    -2.2940 ha         1 1CQ       0.110500
     44 H17         -2.3300     4.0510    -1.7340 ha         1 1CQ       0.123000
@<TRIPOS>BOND
     1     1     2 ar  
     2     1     7 ar  
     3     1    28 1   
     4     2     3 ar  
     5     2    29 1   
     6     3     4 1   
     7     3     5 ar  
     8     4    30 1   
     9     5     6 ar  
    10     5    31 1   
    11     6     7 ar  
    12     6    32 1   
    13     7     8 1   
    14     8     9 2   
    15     8    19 1   
    16     9    10 1   
    17     9    17 1   
    18    10    11 ar  
    19    10    16 ar  
    20    11    12 ar  
    21    11    33 1   
    22    12    13 ar  
    23    12    34 1   
    24    13    14 1   
    25    13    15 ar  
    26    14    35 1   
    27    15    16 ar  
    28    15    36 1   
    29    16    37 1   
    30    17    18 1   
    31    17    38 1   
    32    18    19 2   
    33    19    20 1   
    34    20    21 1   
    35    20    39 1   
    36    21    22 ar  
    37    21    27 ar  
    38    22    23 ar  
    39    22    40 1   
    40    23    24 ar  
    41    23    41 1   
    42    24    25 1   
    43    24    26 ar  
    44    25    42 1   
    45    26    27 ar  
    46    26    43 1   
    47    27    44 1   
@<TRIPOS>SUBSTRUCTURE
     1 1CQ         1 TEMP              0 ****  ****    0 ROOT
