@<TRIPOS>MOLECULE
1CS
   35    36     1     0     0
SMALL
bcc


@<TRIPOS>ATOM
      1 C5'          0.0000     0.0000     0.0000 c3         1 1CS       0.222700
      2 O4'          1.4300     0.0000     0.0000 os         1 1CS      -0.381100
      3 C4'          1.8210     0.0000     1.2960 ca         1 1CS       0.880300
      4 N5'          3.1140     0.0010     1.6010 nb         1 1CS      -0.714000
      5 C6'          3.4960     0.0020     2.8640 ca         1 1CS       0.693300
      6 C7'          4.9640     0.0020     3.2050 c3         1 1CS      -0.033400
      7 N1'          2.5950     0.0020     3.8310 nb         1 1CS      -0.757000
      8 C2'          1.2990     0.0020     3.5330 ca         1 1CS       0.650900
      9 N10          0.3550     0.0010     4.5460 ns         1 1CS      -0.089400
     10 C9          -0.9580     0.0010     4.2430 c          1 1CS       0.614100
     11 O9          -1.3140     0.0010     3.0810 o          1 1CS      -0.605100
     12 N8          -1.8770     0.0020     5.2280 ns         1 1CS      -0.315300
     13 S7          -3.4860     0.1310     4.8600 sy         1 1CS       1.055900
     14 O7A         -4.1750     0.0380     6.0990 o          1 1CS      -0.561300
     15 O7B         -3.5860     1.2110     3.9420 o          1 1CS      -0.561300
     16 C2          -3.9370    -1.3110     3.9540 ca         1 1CS      -0.147500
     17 C3          -4.3540    -1.1990     2.6410 ca         1 1CS       0.041000
     18 C4          -4.7080    -2.3300     1.9300 ca         1 1CS      -0.131000
     19 C5          -4.6450    -3.5730     2.5310 ca         1 1CS      -0.035000
     20 C6          -4.2270    -3.6860     3.8430 ca         1 1CS      -0.129000
     21 C1          -3.8670    -2.5540     4.5540 ca         1 1CS       0.048400
     22 N3'          0.9120     0.0060     2.2630 nb         1 1CS      -0.735000
     23 Cl11        -3.3420    -2.6950     6.2020 cl         1 1CS      -0.007400
     24 H5'1        -0.3610    -0.8790     0.5190 h1         1 1CS       0.014700
     25 H5'2        -0.3610    -0.0100    -1.0210 h1         1 1CS       0.014700
     26 H5'3        -0.3610     0.8900     0.5020 h1         1 1CS       0.014700
     27 H7'1         5.1720     0.8010     3.9060 hc         1 1CS       0.023700
     28 H7'2         5.2320    -0.9480     3.6500 hc         1 1CS       0.023700
     29 H7'3         5.5440     0.1540     2.3020 hc         1 1CS       0.023700
     30 H10          0.6480     0.0080     5.5030 hn         1 1CS       0.178500
     31 HN8         -1.5840    -0.0370     6.1850 hn         1 1CS       0.228500
     32 H3          -4.4040    -0.2250     2.1700 ha         1 1CS       0.137000
     33 H4          -5.0350    -2.2420     0.9010 ha         1 1CS       0.112000
     34 H5          -4.9240    -4.4590     1.9730 ha         1 1CS       0.105000
     35 H6          -4.1750    -4.6610     4.3140 ha         1 1CS       0.119000
@<TRIPOS>BOND
     1     1     2 1   
     2     1    24 1   
     3     1    25 1   
     4     1    26 1   
     5     2     3 1   
     6     3     4 ar  
     7     3    22 ar  
     8     4     5 ar  
     9     5     6 1   
    10     5     7 ar  
    11     6    27 1   
    12     6    28 1   
    13     6    29 1   
    14     7     8 ar  
    15     8     9 1   
    16     8    22 ar  
    17     9    10 1   
    18     9    30 1   
    19    10    11 2   
    20    10    12 1   
    21    12    13 1   
    22    12    31 1   
    23    13    14 2   
    24    13    15 2   
    25    13    16 1   
    26    16    17 ar  
    27    16    21 ar  
    28    17    18 ar  
    29    17    32 1   
    30    18    19 ar  
    31    18    33 1   
    32    19    20 ar  
    33    19    34 1   
    34    20    21 ar  
    35    20    35 1   
    36    21    23 1   
@<TRIPOS>SUBSTRUCTURE
     1 1CS         1 TEMP              0 ****  ****    0 ROOT
