@<TRIPOS>MOLECULE
molecule
   36    37     1     0     0
SMALL
bcc


@<TRIPOS>ATOM
      1 C5'          0.0000     0.0000     0.0000 c3         1 1CS       0.122700
      2 O4'          1.4170     0.0000     0.0000 os         1 1CS      -0.423100
      3 C4'          2.1480     0.0000     1.2470 ca         1 1CS       0.900300
      4 N5'          1.4130     0.0010     2.4650 nb         1 1CS      -0.777000
      5 C6'          2.1590    -0.0040     3.6970 ca         1 1CS       0.745300
      6 C7'          1.4190    -0.0000     4.9190 c3         1 1CS      -0.150400
      7 N1'          3.5800    -0.0070     3.7120 nb         1 1CS      -0.772000
      8 C2'          4.2740    -0.0080     2.4480 ca         1 1CS       0.794900
      9 N10          5.6220    -0.0090     2.4240 ns         1 1CS      -0.540400
     10 C9           6.3780    -0.0040     1.3040 c          1 1CS       0.657100
     11 O9           6.0130     0.0060     0.1130 o          1 1CS      -0.521100
     12 N8           7.6760     0.0110     1.6880 ny         1 1CS      -0.532700
     13 S7           8.9650     0.0480     0.6360 sy         1 1CS       1.540200
     14 O7A          9.4940    -1.1320    -0.0050 o          1 1CS      -0.535800
     15 O7B          9.6880     0.6370     1.7490 o          1 1CS      -0.535800
     16 C2           8.8280     1.5180    -0.3120 ca         1 1CS      -0.586500
     17 C3           9.3040     1.2820    -1.6530 ca         1 1CS       0.015000
     18 C4           9.2890     2.3690    -2.6480 ca         1 1CS      -0.134000
     19 C5           8.7810     3.6990    -2.2600 ca         1 1CS       0.050000
     20 C6           8.3190     3.9120    -0.9390 ca         1 1CS      -0.154000
     21 C1           8.3320     2.8540     0.0440 ca         1 1CS       0.192400
     22 N3'          3.5240    -0.0060     1.2520 nb         1 1CS      -0.757000
     23 Cl11         7.7560     3.2100     1.6080 cl         1 1CS       0.008600
     24 H5'1        -0.3610    -0.8940     0.4930 h1         1 1CS       0.067033
     25 H5'2        -0.3610     0.0200    -1.0210 h1         1 1CS       0.067033
     26 H5'3        -0.3610     0.8740     0.5280 h1         1 1CS       0.067033
     27 H7'1         2.1010    -0.0970     5.7550 hc         1 1CS       0.082367
     28 H7'2         0.8710     0.9300     5.0060 hc         1 1CS       0.082367
     29 H7'3         0.7230    -0.8300     4.9220 hc         1 1CS       0.082367
     30 H10          6.0990    -0.0150     3.3030 hn         1 1CS       0.357500
     31 HN8          7.8040    -0.8090     2.2470 hn         1 1CS       0.430800
     32 H3           9.6750     0.3020    -1.9290 ha         1 1CS       0.176000
     33 H4           9.6460     2.1930    -3.6560 ha         1 1CS       0.181000
     34 H5           8.7630     4.5080    -2.9810 ha         1 1CS       0.178000
     35 H6           7.9480     4.8910    -0.6580 ha         1 1CS       0.190000
     36 H82          7.7740     0.8070     2.2870 hn         1 1CS       0.430800
@<TRIPOS>BOND
     1     1     2 1   
     2     1    24 1   
     3     1    25 1   
     4     1    26 1   
     5     2     3 1   
     6     3     4 ar  
     7     3    22 ar  
     8     4     5 ar  
     9     5     6 1   
    10     5     7 ar  
    11     6    27 1   
    12     6    28 1   
    13     6    29 1   
    14     7     8 ar  
    15     8     9 1   
    16     8    22 ar  
    17     9    10 1   
    18     9    30 1   
    19    10    11 2   
    20    10    12 1   
    21    12    13 1   
    22    12    31 1   
    23    13    14 2   
    24    13    15 2   
    25    13    16 1   
    26    16    17 ar  
    27    16    21 ar  
    28    17    18 ar  
    29    17    32 1   
    30    18    19 ar  
    31    18    33 1   
    32    19    20 ar  
    33    19    34 1   
    34    20    21 ar  
    35    20    35 1   
    36    21    23 1   
    37    36    12 1   
@<TRIPOS>SUBSTRUCTURE
     1 1CS         1 TEMP              0 ****  ****    0 ROOT
