@<TRIPOS>MOLECULE
1CT
   36    37     1     0     0
SMALL
bcc


@<TRIPOS>ATOM
      1 OAA          3.0710    -1.2400    -1.7710 o          1 1CT      -0.674300
      2 OAB          5.8130    -3.7250     1.9650 o          1 1CT      -0.869000
      3 OAC          6.5200    -2.5750    -0.1400 oh         1 1CT      -0.790400
      4 OAD          8.1720    -2.6970     1.7560 o          1 1CT      -0.869000
      5 FAE         -1.2620     3.5470    -2.6370 f          1 1CT      -0.269633
      6 FAF         -0.6520     2.4160    -0.9260 f          1 1CT      -0.269633
      7 FAG          0.8060     3.5170    -2.0870 f          1 1CT      -0.269633
      8 CAH          0.2310    -0.7210    -4.8110 ca         1 1CT      -0.079000
      9 CAI          5.4740     1.2430     3.4290 ca         1 1CT      -0.104000
     10 CAJ         -0.7390     0.2550    -5.1020 ca         1 1CT      -0.285000
     11 CAK          6.5270     0.4400     3.8540 ca         1 1CT      -0.212000
     12 CAL          1.0350    -0.6180    -3.7050 ca         1 1CT      -0.247000
     13 CAM          4.7430     0.8910     2.3010 ca         1 1CT      -0.250000
     14 CAN         -0.8720     1.3330    -4.2460 ca         1 1CT      -0.043000
     15 CAO          6.8170    -0.7200     3.1400 ca         1 1CT      -0.067000
     16 CAP          3.3130     0.3220     0.0570 c3         1 1CT       0.069400
     17 NAQ          1.6720     0.6780    -1.6720 ne         1 1CT      -0.578400
     18 OAR          4.3330    -0.6070     0.4360 os         1 1CT      -0.304900
     19 CAS          2.6670    -0.1780    -1.2450 c2         1 1CT       0.588300
     20 CAT          0.9340     0.4890    -2.7800 ca         1 1CT       0.342400
     21 CAU          5.0520    -0.2820     1.5780 ca         1 1CT       0.215100
     22 CAV         -0.0700     1.4670    -3.1130 ca         1 1CT      -0.306300
     23 CAW          6.0990    -1.1220     2.0090 ca         1 1CT      -0.300500
     24 CAX         -0.2700     2.6710    -2.2220 c3         1 1CT       0.720200
     25 PAY          6.7130    -2.6540     1.4790 p5         1 1CT       1.381900
     26 HAH          0.3410    -1.5810    -5.4890 ha         1 1CT       0.093000
     27 HAI          5.2170     2.1600     3.9790 ha         1 1CT       0.095000
     28 HAJ         -1.3740     0.1590    -5.9890 ha         1 1CT       0.095000
     29 HAK          7.1190     0.7140     4.7360 ha         1 1CT       0.100000
     30 HAL          1.7890    -1.3940    -3.4950 ha         1 1CT       0.163000
     31 HAM          3.9210     1.5510     1.9940 ha         1 1CT       0.124000
     32 HAN         -1.6270     2.1060    -4.4600 ha         1 1CT       0.102000
     33 HAO          7.6690    -1.3550     3.4560 ha         1 1CT       0.164000
     34 HAP          3.7680     1.3320    -0.1170 h1         1 1CT       0.047200
     35 HAPA         2.5360     0.3730     0.8650 h1         1 1CT       0.047200
     36 HNAQ         5.6110    -2.5060    -0.4160 ho         1 1CT       0.442000
@<TRIPOS>BOND
     1     1    19 1   
     2     2    25 1   
     3     3    25 1   
     4     3    36 1   
     5     4    25 1   
     6     5    24 1   
     7     6    24 1   
     8     7    24 1   
     9     8    10 ar  
    10     8    12 ar  
    11     8    26 1   
    12     9    11 ar  
    13     9    13 ar  
    14     9    27 1   
    15    10    14 ar  
    16    10    28 1   
    17    11    15 ar  
    18    11    29 1   
    19    12    20 ar  
    20    12    30 1   
    21    13    21 ar  
    22    13    31 1   
    23    14    22 ar  
    24    14    32 1   
    25    15    23 ar  
    26    15    33 1   
    27    16    18 1   
    28    16    19 1   
    29    16    34 1   
    30    16    35 1   
    31    17    19 2   
    32    17    20 1   
    33    18    21 1   
    34    20    22 ar  
    35    21    23 ar  
    36    22    24 1   
    37    23    25 1   
@<TRIPOS>SUBSTRUCTURE
     1 1CT         1 TEMP              0 ****  ****    0 ROOT
