@<TRIPOS>MOLECULE
molecule
   36    37     1     0     0
SMALL
bcc


@<TRIPOS>ATOM
      1 OAA          0.0000     0.0000     0.0000 o          1 1CT      -0.471100
      2 OAB         -1.5770     1.3880     4.4600 o          1 1CT      -0.893167
      3 OAC         -1.7880    -0.7770     5.7400 o          1 1CT      -0.893167
      4 OAD         -1.4470    -0.7550     3.1330 o          1 1CT      -0.893167
      5 FAE          4.0530    -0.1520    -3.0610 f          1 1CT      -0.231967
      6 FAF          3.4310    -1.4870    -4.8050 f          1 1CT      -0.231967
      7 FAG          3.0510    -2.1640    -2.6570 f          1 1CT      -0.231967
      8 CAH         -0.7360     0.8410    -3.6030 ca         1 1CT      -0.082000
      9 CAI          3.4570     0.0030     5.1080 ca         1 1CT      -0.143000
     10 CAJ         -0.1810     0.3430    -4.7670 ca         1 1CT      -0.183000
     11 CAK          2.6130     0.0040     6.2030 ca         1 1CT      -0.209000
     12 CAL         -0.0530     0.7280    -2.4070 ca         1 1CT      -0.137000
     13 CAM          2.9310     0.0020     3.8300 ca         1 1CT      -0.276000
     14 CAN          1.0570    -0.2730    -4.7390 ca         1 1CT      -0.078000
     15 CAO          1.2430    -0.0010     6.0230 ca         1 1CT      -0.050000
     16 CAP          1.9660     0.0000     1.3050 c3         1 1CT       0.077400
     17 NAQ          1.8870    -0.0020    -1.1670 ns         1 1CT      -0.498100
     18 OAR          1.0370     0.0020     2.3920 os         1 1CT      -0.210900
     19 CAS          1.2140     0.0000     0.0000 c          1 1CT       0.631100
     20 CAT          1.1930     0.1140    -2.3760 ca         1 1CT       0.141600
     21 CAU          1.5570     0.0030     3.6470 ca         1 1CT       0.171100
     22 CAV          1.7420    -0.3940    -3.5460 ca         1 1CT      -0.246300
     23 CAW          0.7120    -0.0070     4.7470 ca         1 1CT      -0.141500
     24 CAX          3.0940    -1.0610    -3.5160 c3         1 1CT       0.674200
     25 PAY         -1.0860    -0.0070     4.5130 p5         1 1CT       1.043000
     26 HAH         -1.7070     1.3210    -3.6280 ha         1 1CT       0.135000
     27 HAI          4.5310     0.0040     5.2520 ha         1 1CT       0.075000
     28 HAJ         -0.7180     0.4350    -5.7040 ha         1 1CT       0.118000
     29 HAK          3.0270     0.0070     7.2040 ha         1 1CT       0.082000
     30 HAL         -0.4880     1.1180    -1.4950 ha         1 1CT       0.207000
     31 HAM          3.5920     0.0010     2.9720 ha         1 1CT       0.081000
     32 HAN          1.4870    -0.6650    -5.6520 ha         1 1CT       0.129000
     33 HAO          0.5840    -0.0040     6.8830 ha         1 1CT       0.152000
     34 HAP          2.5880    -0.8850     1.3640 h1         1 1CT       0.030700
     35 HAPA         2.5900     0.8840     1.3620 h1         1 1CT       0.030700
     36 HNAQ         2.8880    -0.0410    -1.1660 hn         1 1CT       0.319500
@<TRIPOS>BOND
     1     1    19 2   
     2     2    25 1   
     3    25     3 1   
     4    25     4 1   
     5    24     5 1   
     6     6    24 1   
     7    24     7 1   
     8    12     8 ar  
     9     8    10 ar  
    10     8    26 1   
    11    13     9 ar  
    12     9    11 ar  
    13     9    27 1   
    14    10    14 ar  
    15    10    28 1   
    16    11    15 ar  
    17    11    29 1   
    18    12    20 ar  
    19    12    30 1   
    20    13    21 ar  
    21    13    31 1   
    22    22    14 ar  
    23    14    32 1   
    24    23    15 ar  
    25    15    33 1   
    26    18    16 1   
    27    16    19 1   
    28    16    34 1   
    29    16    35 1   
    30    19    17 1   
    31    17    20 1   
    32    17    36 1   
    33    18    21 1   
    34    20    22 ar  
    35    21    23 ar  
    36    22    24 1   
    37    25    23 1   
@<TRIPOS>SUBSTRUCTURE
     1 1CT         1 TEMP              0 ****  ****    0 ROOT
