@<TRIPOS>MOLECULE
molecule
   17    17     1     0     0
SMALL
bcc


@<TRIPOS>ATOM
      1 O            0.0000     0.0000     0.0000 o          1 1CW      -0.831300
      2 C5           1.2150     0.0000     0.0000 c          1 1CW       0.881200
      3 O1           1.8880     0.0000     1.1670 o          1 1CW      -0.831300
      4 C4           1.9520    -0.0070    -1.2760 ca         1 1CW      -0.110600
      5 C3           3.3500    -0.0060    -1.2790 ca         1 1CW      -0.093000
      6 C2           4.0360    -0.0130    -2.4740 ca         1 1CW      -0.172000
      7 C1           3.3490    -0.0200    -3.6770 ca         1 1CW      -0.161000
      8 C6           1.2560    -0.0200    -2.4910 ca         1 1CW       0.106100
      9 O2          -0.1020    -0.0190    -2.4990 oh         1 1CW      -0.479100
     10 C            1.9630    -0.0200    -3.6900 ca         1 1CW       0.082600
     11 N            1.2750    -0.0330    -4.9100 nv         1 1CW      -0.979200
     12 H2           3.8940    -0.0010    -0.3430 ha         1 1CW       0.155000
     13 H3           5.1200    -0.0130    -2.4730 ha         1 1CW       0.104000
     14 H4           3.8980    -0.0230    -4.6110 ha         1 1CW       0.106000
     15 H5          -0.4140    -0.8350    -2.8520 ho         1 1CW       0.397000
     16 H6           0.7260     0.7580    -5.1820 hn         1 1CW       0.411800
     17 H7           1.2920    -0.8520    -5.4850 hn         1 1CW       0.411800
@<TRIPOS>BOND
     1     9     8 1
     2    11    10 1
     3     1     2 1
     4     8    10 ar
     5     8     4 ar
     6    10     7 ar
     7     2     4 1
     8     2     3 1
     9     4     5 ar
    10     7     6 ar
    11     5     6 ar
    12     5    12 1
    13     6    13 1
    14     7    14 1
    15     9    15 1
    16    11    16 1
    17    11    17 1
@<TRIPOS>SUBSTRUCTURE
     1 1CW         1 TEMP              0 ****  ****    0 ROOT
