@<TRIPOS>MOLECULE
1CW
   17    17     1     0     0
SMALL
bcc


@<TRIPOS>ATOM
      1 O            0.3560    -0.7900     0.4480 o          1 1CW      -0.833300
      2 C5           1.4240    -0.1880     0.1140 c          1 1CW       0.916200
      3 O1           1.8920     0.7870     0.7630 o          1 1CW      -0.833300
      4 C4           2.1740    -0.6590    -1.1180 ca         1 1CW      -0.199600
      5 C3           3.3450     0.0130    -1.4770 ca         1 1CW      -0.082000
      6 C2           4.0840    -0.3760    -2.5900 ca         1 1CW      -0.195000
      7 C1           3.6620    -1.4440    -3.3760 ca         1 1CW      -0.126000
      8 C6           1.7500    -1.7440    -1.9050 ca         1 1CW       0.141100
      9 O2           0.6280    -2.4840    -1.6330 oh         1 1CW      -0.570100
     10 C            2.4880    -2.1490    -3.0580 ca         1 1CW       0.003600
     11 N            2.0490    -3.1990    -3.9110 nv         1 1CW      -0.779200
     12 H2           3.6660     0.8590    -0.8470 ha         1 1CW       0.152000
     13 H3           5.0040     0.1620    -2.8560 ha         1 1CW       0.106000
     14 H4           4.2520    -1.7390    -4.2570 ha         1 1CW       0.112000
     15 H5           0.1750    -2.1030    -0.8490 ho         1 1CW       0.488000
     16 H6           1.1220    -3.4860    -3.6530 hn         1 1CW       0.350300
     17 H7           2.6670    -3.9840    -3.8240 hn         1 1CW       0.350300
@<TRIPOS>BOND
     1     1     2 1   
     2     2     3 1   
     3     2     4 1   
     4     4     5 ar  
     5     4     8 ar  
     6     5     6 ar  
     7     5    12 1   
     8     6     7 ar  
     9     6    13 1   
    10     7    10 ar  
    11     7    14 1   
    12     8     9 1   
    13     8    10 ar  
    14     9    15 1   
    15    10    11 1   
    16    11    16 1   
    17    11    17 1   
@<TRIPOS>SUBSTRUCTURE
     1 1CW         1 TEMP              0 ****  ****    0 ROOT
