@<TRIPOS>MOLECULE
1CW
   17    17     1     0     0
SMALL
bcc


@<TRIPOS>ATOM
      1 O            0.0000     0.0000     0.0000 o          1 1CW      -0.881300
      2 C5           1.2150     0.0000     0.0000 c          1 1CW       0.974200
      3 O1           1.8880     0.0000     1.1670 o          1 1CW      -0.881300
      4 C4           1.9520    -0.0070    -1.2760 ca         1 1CW      -0.121600
      5 C3           3.3500    -0.0060    -1.2790 ca         1 1CW      -0.055000
      6 C2           4.0360    -0.0130    -2.4740 ca         1 1CW      -0.159000
      7 C1           3.3490    -0.0200    -3.6770 ca         1 1CW      -0.129000
      8 C6           1.2560    -0.0200    -2.4910 ca         1 1CW       0.133100
      9 O2          -0.1020    -0.0190    -2.4990 oh         1 1CW      -0.454100
     10 C            1.9630    -0.0200    -3.6900 ca         1 1CW      -0.072400
     11 N            1.2750    -0.0330    -4.9100 nv         1 1CW      -0.537200
     12 H2           3.8940    -0.0010    -0.3430 ha         1 1CW       0.128000
     13 H3           5.1200    -0.0130    -2.4730 ha         1 1CW       0.083000
     14 H4           3.8980    -0.0230    -4.6110 ha         1 1CW       0.085000
     15 H5          -0.4140    -0.8350    -2.8520 ho         1 1CW       0.376000
     16 H6           0.7260     0.7580    -5.1820 hn         1 1CW       0.255300
     17 H7           1.2920    -0.8520    -5.4850 hn         1 1CW       0.255300
@<TRIPOS>BOND
     1     1     2 1   
     2     2     3 1   
     3     2     4 1   
     4     4     5 ar  
     5     4     8 ar  
     6     5     6 ar  
     7     5    12 1   
     8     6     7 ar  
     9     6    13 1   
    10     7    10 ar  
    11     7    14 1   
    12     8     9 1   
    13     8    10 ar  
    14     9    15 1   
    15    10    11 1   
    16    11    16 1   
    17    11    17 1   
@<TRIPOS>SUBSTRUCTURE
     1 1CW         1 TEMP              0 ****  ****    0 ROOT
