@<TRIPOS>MOLECULE
molecule
   36    37     1     0     0
SMALL
bcc


@<TRIPOS>ATOM
      1 N1           0.0000     0.0000     0.0000 ne         1 1CX      -0.554100
      2 C4           2.3970     0.0000     0.0000 ca         1 1CX      -0.154000
      3 C5           3.5840     0.0000     0.7020 ca         1 1CX      -0.104000
      4 C6           3.5750     0.0020     2.0850 ca         1 1CX       0.077900
      5 C7          -1.3860    -0.7540    -1.8430 cf         1 1CX      -0.238800
      6 C8          -1.6910    -1.9170    -2.5380 ce         1 1CX      -0.001000
      7 C10          0.4560    -2.8970    -2.0740 c2         1 1CX       0.107300
      8 C13         -2.2880     0.4070    -1.8660 c          1 1CX       0.697300
      9 C15         -3.3810     4.8980    -0.5310 c3         1 1CX       0.149400
     10 C1           2.3760     0.0050     2.7770 ca         1 1CX      -0.135000
     11 C2           1.1790     0.0030     2.0880 ca         1 1CX       0.166900
     12 C3           1.1820     0.0020     0.6900 ca         1 1CX       0.080400
     13 I1           5.3870     0.0030     3.1390 i          1 1CX      -0.140900
     14 C9          -0.8040    -3.0040    -2.5150 ce         1 1CX      -0.175000
     15 C11          1.0110    -1.5840    -1.5890 c3         1 1CX       0.102500
     16 C12         -0.1270    -0.7290    -1.0770 cf         1 1CX       0.468600
     17 F2           1.6390    -0.9200    -2.6490 f          1 1CX      -0.210300
     18 F3           0.0090     0.0040     2.7640 f          1 1CX      -0.113900
     19 O1          -3.3240     0.3610    -2.5010 o          1 1CX      -0.586100
     20 N2          -1.9670     1.5240    -1.1820 ns         1 1CX      -0.459400
     21 O2          -2.8350     2.6420    -1.2040 os         1 1CX      -0.170900
     22 C14         -2.3700     3.7540    -0.4360 c3         1 1CX       0.110400
     23 O3          -4.6080     4.5020     0.0830 oh         1 1CX      -0.595800
     24 H4           2.4060    -0.0020    -1.0830 ha         1 1CX       0.167000
     25 H5           4.5270    -0.0010     0.1680 ha         1 1CX       0.154000
     26 H8          -2.6170    -1.9870    -3.0960 ha         1 1CX       0.179000
     27 H15         -3.5600     5.1370    -1.5730 h1         1 1CX       0.033700
     28 H15A        -2.9890     5.7710    -0.0230 h1         1 1CX       0.033700
     29 H1           2.3770     0.0060     3.8600 ha         1 1CX       0.165000
     30 H9          -1.1510    -3.9670    -2.8680 ha         1 1CX       0.161000
     31 H11          1.7210    -1.7620    -0.7910 h1         1 1CX       0.103700
     32 HN2         -1.0990     1.5740    -0.6860 hn         1 1CX       0.343500
     33 H14         -2.2570     3.4570     0.5990 h1         1 1CX       0.042200
     34 H14A        -1.4130     4.0850    -0.8230 h1         1 1CX       0.042200
     35 HO3         -5.2020     5.2340     0.1010 ho         1 1CX       0.404000
     36 F1           1.2430    -3.9930    -2.0520 f          1 1CX      -0.147500
@<TRIPOS>BOND
     1     1    12 1
     2     1    16 2
     3     2     3 ar
     4     2    12 ar
     5     3     4 ar
     6     4    10 ar
     7     4    13 1
     8     5     6 2
     9     5     8 1
    10     5    16 1
    11     6    14 1
    12     7    14 2
    13     7    15 1
    14     7    36 1
    15     8    19 2
    16     8    20 1
    17     9    22 1
    18     9    23 1
    19    10    11 ar
    20    11    12 ar
    21    11    18 1
    22    15    16 1
    23    15    17 1
    24    20    21 1
    25    21    22 1
    26     2    24 1
    27     3    25 1
    28     6    26 1
    29     9    27 1
    30     9    28 1
    31    10    29 1
    32    14    30 1
    33    15    31 1
    34    20    32 1
    35    22    33 1
    36    22    34 1
    37    23    35 1
@<TRIPOS>SUBSTRUCTURE
     1 1CX         1 TEMP              0 ****  ****    0 ROOT
