@<TRIPOS>MOLECULE
1CY
   33    34     1     0     0
SMALL
bcc


@<TRIPOS>ATOM
      1 N1          -0.0420     0.0760    -0.0240 n2         1 1CY      -0.547900
      2 C2           1.2580     0.0660    -0.1230 ce         1 1CY       0.710200
      3 N3           2.2220    -0.0210     0.9300 ne         1 1CY      -0.794000
      4 C4           1.6690    -0.0920     2.1530 c2         1 1CY       0.789100
      5 N5           0.3320    -0.0630     2.4500 nh         1 1CY      -0.619000
      6 C6          -0.6780    -0.0020     1.3060 c3         1 1CY       0.455400
      7 N7           1.8680     0.1500    -1.4870 nz         1 1CY      -0.780600
      8 N8           2.6500    -0.1890     3.2910 nz         1 1CY      -0.807600
      9 C9          -1.5810    -1.2610     1.3550 c3         1 1CY      -0.114600
     10 C10         -1.5820     1.2420     1.4990 c3         1 1CY      -0.114600
     11 C11         -0.1320    -0.1900     3.7950 ca         1 1CY      -0.033400
     12 C12         -0.2670    -1.4690     4.3820 ca         1 1CY      -0.112500
     13 C13         -0.7440    -1.5880     5.6800 ca         1 1CY      -0.112000
     14 C14         -1.1040    -0.4450     6.4130 ca         1 1CY       0.063400
     15 C15         -0.9820     0.8240     5.8270 ca         1 1CY      -0.112000
     16 C16         -0.5040     0.9560     4.5280 ca         1 1CY      -0.112500
     17 Cl17        -1.6870    -0.5990     7.9800 cl         1 1CY       0.029600
     18 HN7          2.4430    -0.6880    -1.6540 hn         1 1CY       0.494467
     19 HN7A         1.1290     0.2080    -2.2060 hn         1 1CY       0.494467
     20 HN8          2.2560    -0.7820     4.0420 hn         1 1CY       0.499467
     21 HN8A         3.5410    -0.5930     2.9610 hn         1 1CY       0.499467
     22 H9          -0.9960    -2.2010     1.2120 hc         1 1CY       0.087533
     23 H9A         -2.3530    -1.1860     0.5490 hc         1 1CY       0.087533
     24 H9B         -2.1030    -1.3020     2.3430 hc         1 1CY       0.087533
     25 H10         -2.1360     1.1470     2.4660 hc         1 1CY       0.087533
     26 H10A        -0.9950     2.1900     1.5040 hc         1 1CY       0.087533
     27 H10B        -2.3300     1.2810     0.6660 hc         1 1CY       0.087533
     28 H12         -0.0330    -2.3820     3.8100 ha         1 1CY       0.159000
     29 H13         -0.8560    -2.5910     6.1320 ha         1 1CY       0.192500
     30 H15         -1.2780     1.7260     6.3940 ha         1 1CY       0.192500
     31 H16         -0.4420     1.9620     4.0790 ha         1 1CY       0.159000
     32 H73          2.4640     0.9890    -1.5400 hn         1 1CY       0.494467
     33 H83          2.8230     0.7570     3.6600 hn         1 1CY       0.499467
@<TRIPOS>BOND
     1     1     2 2   
     2     1     6 1   
     3     2     3 1   
     4     2     7 1   
     5     3     4 2   
     6     4     5 1   
     7     4     8 1   
     8     5     6 1   
     9     5    11 1   
    10     6     9 1   
    11     6    10 1   
    12     7    18 1   
    13     7    19 1   
    14     7    32 1   
    15     8    20 1   
    16     8    21 1   
    17     8    33 1   
    18     9    22 1   
    19     9    23 1   
    20     9    24 1   
    21    10    25 1   
    22    10    26 1   
    23    10    27 1   
    24    11    12 ar  
    25    11    16 ar  
    26    12    13 ar  
    27    12    28 1   
    28    13    14 ar  
    29    13    29 1   
    30    14    15 ar  
    31    14    17 1   
    32    15    16 ar  
    33    15    30 1   
    34    16    31 1   
@<TRIPOS>SUBSTRUCTURE
     1 1CY         1 TEMP              0 ****  ****    0 ROOT
