@<TRIPOS>MOLECULE
molecule
   33    34     1     0     0
SMALL
bcc


@<TRIPOS>ATOM
      1 N1           0.0000     0.0000     0.0000 n2         1 1CY      -0.573900
      2 C2           1.3070     0.0000     0.0000 ce         1 1CY       0.711200
      3 N3           2.0200     0.0000     1.1390 ne         1 1CY      -0.815000
      4 C4           1.4430    -0.2550     2.2990 c2         1 1CY       0.771100
      5 N5           0.0990    -0.5470     2.3160 nh         1 1CY      -0.642000
      6 C6          -0.7420     0.0480     1.2650 c3         1 1CY       0.453400
      7 N7           1.9760     0.0010    -1.2080 nz         1 1CY      -0.733600
      8 N8           2.1670    -0.2300     3.4590 nz         1 1CY      -0.745600
      9 C9          -2.0420    -0.7480     1.1320 c3         1 1CY      -0.101600
     10 C10         -1.0600     1.5010     1.6210 c3         1 1CY      -0.101600
     11 C11         -0.4500    -1.3800     3.2970 ca         1 1CY      -0.014400
     12 C12         -0.1410    -2.7340     3.3120 ca         1 1CY      -0.117000
     13 C13         -0.6840    -3.5550     4.2800 ca         1 1CY      -0.096500
     14 C14         -1.5350    -3.0290     5.2370 ca         1 1CY       0.070400
     15 C15         -1.8450    -1.6800     5.2240 ca         1 1CY      -0.096500
     16 C16         -1.3000    -0.8550     4.2610 ca         1 1CY      -0.117000
     17 Cl17        -2.2160    -4.0630     6.4540 cl         1 1CY       0.001600
     18 HN7          2.6990     0.6940    -1.1880 hn         1 1CY       0.494133
     19 HN7A         1.3330     0.2120    -1.9450 hn         1 1CY       0.494133
     20 HN8          2.3980    -1.1660     3.7280 hn         1 1CY       0.498133
     21 HN8A         1.6250     0.2010     4.1820 hn         1 1CY       0.498133
     22 H9          -2.6500    -0.5970     2.0150 hc         1 1CY       0.082700
     23 H9A         -1.8110    -1.8010     1.0280 hc         1 1CY       0.082700
     24 H9B         -2.5840    -0.4090     0.2580 hc         1 1CY       0.082700
     25 H10         -1.8520     1.5270     2.3600 hc         1 1CY       0.082700
     26 H10A        -0.1740     1.9770     2.0240 hc         1 1CY       0.082700
     27 H10B        -1.3800     2.0290     0.7300 hc         1 1CY       0.082700
     28 H12          0.5260    -3.1460     2.5630 ha         1 1CY       0.149000
     29 H13         -0.4430    -4.6110     4.2920 ha         1 1CY       0.187500
     30 H15         -2.5100    -1.2710     5.9750 ha         1 1CY       0.187500
     31 H16         -1.5430     0.2010     4.2520 ha         1 1CY       0.149000
     32 H73          2.1420    -0.9420    -1.4980 hn         1 1CY       0.494133
     33 H83          3.0340     0.2430     3.3000 hn         1 1CY       0.498133
@<TRIPOS>BOND
     1     6     1 1   
     2     2     1 2   
     3     3     2 1   
     4     2     7 1   
     5     4     3 2   
     6     8     4 1   
     7     4     5 1   
     8    11     5 1   
     9     5     6 1   
    10     6    10 1   
    11     6     9 1   
    12     7    18 1   
    13     7    19 1   
    14     8    20 1   
    15     8    21 1   
    16     9    22 1   
    17     9    23 1   
    18     9    24 1   
    19    10    25 1   
    20    10    26 1   
    21    10    27 1   
    22    16    11 ar  
    23    12    11 ar  
    24    13    12 ar  
    25    12    28 1   
    26    14    13 ar  
    27    13    29 1   
    28    17    14 1   
    29    14    15 ar  
    30    15    16 ar  
    31    15    30 1   
    32    16    31 1   
    33    32     7 1   
    34    33     8 1   
@<TRIPOS>SUBSTRUCTURE
     1 1CY         1 TEMP              0 ****  ****    0 ROOT
