@<TRIPOS>MOLECULE
molecule
   46    47     1     0     0
SMALL
bcc


@<TRIPOS>ATOM
      1 N1           0.0000     0.0000     0.0000 nb         1 1D0      -0.712000
      2 C2           2.0040    -1.6570     8.5980 ca         1 1D0       0.031100
      3 C4           0.0460    -2.5580     9.6480 ca         1 1D0      -0.206000
      4 C5          -0.7530    -1.7490     8.8620 ca         1 1D0      -0.112000
      5 C6          -0.1790    -0.8860     7.9460 ca         1 1D0      -0.201000
      6 O            3.3570    -1.6130     8.4700 oh         1 1D0      -0.497100
      7 C3           1.4220    -2.5140     9.5170 ca         1 1D0      -0.171000
      8 C1           1.2000    -0.8360     7.8100 ca         1 1D0       0.222600
      9 N            1.7830     0.0360     6.8840 nu         1 1D0      -0.772600
     10 O3P          6.2340     1.1450     0.0900 o          1 1D0      -0.912167
     11 P            5.5620     0.0030    -0.5690 p5         1 1D0       1.186900
     12 O1P          5.7160     0.1370    -2.1650 o          1 1D0      -0.912167
     13 O2P          6.2380    -1.3730    -0.0780 o          1 1D0      -0.912167
     14 O4P          3.9990     0.0020    -0.1780 os         1 1D0      -0.589200
     15 C5M          3.5350    -0.0000     1.1730 c3         1 1D0       0.244700
     16 C51          2.0280     0.0000     1.1860 ca         1 1D0      -0.120600
     17 C61          1.3190     0.0000     0.0000 ca         1 1D0       0.424200
     18 C41          1.3370    -0.0020     2.3880 ca         1 1D0      -0.071300
     19 C31         -0.0530    -0.0030     2.3510 ca         1 1D0      -0.022200
     20 O3          -0.7730    -0.0040     3.5030 oh         1 1D0      -0.515100
     21 C21         -0.6950    -0.0020     1.1210 ca         1 1D0       0.315600
     22 C2A         -2.2000    -0.0020     1.0650 c3         1 1D0      -0.126400
     23 C4A          2.0750    -0.0040     3.7020 c3         1 1D0       0.129100
     24 N2           2.3140     1.3770     4.1290 n2         1 1D0      -0.505900
     25 CA           1.8040     1.8060     5.2230 ce         1 1D0       0.343300
     26 C            2.0680     3.1950     5.6700 c          1 1D0       0.804300
     27 OXT          2.8440     4.0050     4.9250 o          1 1D0      -0.826300
     28 O1           1.5850     3.6010     6.7070 o          1 1D0      -0.826300
     29 CB           0.9350     0.8990     6.0560 c3         1 1D0       0.120500
     30 H1          -0.4070    -3.2310    10.3660 ha         1 1D0       0.099000
     31 H2          -1.8310    -1.7860     8.9680 ha         1 1D0       0.105000
     32 H3          -0.8070    -0.2510     7.3330 ha         1 1D0       0.148000
     33 H4           3.7580    -1.8070     9.3000 ho         1 1D0       0.402000
     34 H5           2.0450    -3.1490    10.1350 ha         1 1D0       0.106000
     35 H6           2.7790     0.0900     6.8060 hn         1 1D0       0.463800
     36 H9           3.9010     0.8840     1.6810 h1         1 1D0       0.052200
     37 H10          3.9010    -0.8850     1.6790 h1         1 1D0       0.052200
     38 H11          1.8540     0.0000    -0.9420 h4         1 1D0       0.075100
     39 H12         -1.3970    -0.7100     3.4840 ho         1 1D0       0.389000
     40 H13         -2.5220     0.1210     0.0380 hc         1 1D0       0.026700
     41 H14         -2.5760    -0.9420     1.4510 hc         1 1D0       0.026700
     42 H15         -2.5840     0.8140     1.6640 hc         1 1D0       0.026700
     43 H16          1.4800    -0.5160     4.4490 h1         1 1D0       0.050700
     44 H17          3.0230    -0.5150     3.5830 h1         1 1D0       0.050700
     45 H19          0.3240     0.2860     5.4040 h1         1 1D0       0.057200
     46 H20          0.2960     1.4970     6.6940 h1         1 1D0       0.057200
@<TRIPOS>BOND
     1    10    11 1   
     2     4     3 ar  
     3     4     5 ar  
     4    11    13 1   
     5    11    14 1   
     6    11    12 1   
     7    15    14 1   
     8    15    16 1   
     9     3     7 ar  
    10     5     8 ar  
    11    17    16 ar  
    12    17     1 ar  
    13    16    18 ar  
    14     7     2 ar  
    15     8     2 ar  
    16     8     9 1   
    17     1    21 ar  
    18    18    23 1   
    19    18    19 ar  
    20     2     6 1   
    21    23    24 1   
    22     9    29 1   
    23    29    25 1   
    24    21    19 ar  
    25    21    22 1   
    26    19    20 1   
    27    24    25 2   
    28    25    26 1   
    29    26    28 1   
    30    26    27 1   
    31     3    30 1   
    32     4    31 1   
    33     5    32 1   
    34     6    33 1   
    35     7    34 1   
    36     9    35 1   
    37    15    36 1   
    38    15    37 1   
    39    17    38 1   
    40    20    39 1   
    41    22    40 1   
    42    22    41 1   
    43    22    42 1   
    44    23    43 1   
    45    23    44 1   
    46    29    45 1   
    47    29    46 1   
@<TRIPOS>SUBSTRUCTURE
     1 1D0         1 TEMP              0 ****  ****    0 ROOT
