@<TRIPOS>MOLECULE
1D0
   46    47     1     0     0
SMALL
bcc


@<TRIPOS>ATOM
      1 N1           0.1310    -1.3430     0.1840 nb         1 1D0      -0.681000
      2 C2           5.5250    -1.6960     8.0210 ca         1 1D0       0.080100
      3 C4           7.1450    -3.1380     6.9500 ca         1 1D0      -0.169000
      4 C5           7.1910    -2.2680     5.8650 ca         1 1D0      -0.136000
      5 C6           6.4300    -1.1030     5.8530 ca         1 1D0      -0.142000
      6 O            4.7570    -1.4750     9.1430 oh         1 1D0      -0.558100
      7 C3           6.3080    -2.8560     8.0250 ca         1 1D0      -0.154000
      8 C1           5.5890    -0.7680     6.9380 ca         1 1D0       0.098600
      9 N            4.9390     0.4800     6.9970 nu         1 1D0      -0.704600
     10 O3P          4.7470     1.3420    -1.2510 o          1 1D0      -0.925833
     11 P            4.4200    -0.0440    -1.7400 p5         1 1D0       1.315900
     12 O1P          5.5420    -0.8020    -2.3900 o          1 1D0      -0.925833
     13 O2P          3.0550    -0.2020    -2.3660 o          1 1D0      -0.925833
     14 O4P          4.1790    -0.9100    -0.2530 os         1 1D0      -0.562200
     15 C5M          3.6620    -0.1940     0.7950 c3         1 1D0       0.247700
     16 C51          2.2410    -0.5880     1.1320 ca         1 1D0      -0.159600
     17 C61          1.4010    -0.9590     0.0450 ca         1 1D0       0.365200
     18 C41          1.7080    -0.5850     2.4320 ca         1 1D0      -0.142300
     19 C31          0.3640    -0.9940     2.5800 ca         1 1D0       0.018800
     20 O3          -0.3230    -1.0880     3.7700 oh         1 1D0      -0.551100
     21 C21         -0.3910    -1.3700     1.4390 ca         1 1D0       0.297600
     22 C2A         -1.8020    -1.8080     1.6470 c3         1 1D0      -0.104400
     23 C4A          2.6240    -0.1630     3.5480 c3         1 1D0       0.150100
     24 N2           2.0270     0.0270     4.8470 n2         1 1D0      -0.615900
     25 CA           2.6930     0.4730     5.8490 ce         1 1D0       0.343300
     26 C            2.0200     0.7000     7.2170 c          1 1D0       0.837300
     27 OXT          1.2480     1.6810     7.3550 o          1 1D0      -0.838800
     28 O1           2.3410    -0.0820     8.1650 o          1 1D0      -0.838800
     29 CB           4.1590     0.9020     5.8510 c3         1 1D0       0.081500
     30 H1           7.7510    -4.0530     6.9530 ha         1 1D0       0.103000
     31 H2           7.8270    -2.5000     4.9980 ha         1 1D0       0.123000
     32 H3           6.4900    -0.4370     4.9770 ha         1 1D0       0.147000
     33 H4           3.8760    -1.1570     8.8540 ho         1 1D0       0.480000
     34 H5           6.2370    -3.5390     8.8820 ha         1 1D0       0.118000
     35 H6           4.3960     0.5730     7.8450 hn         1 1D0       0.414800
     36 H9           4.3050    -0.3800     1.7100 h1         1 1D0       0.014200
     37 H10          3.6720     0.9160     0.5670 h1         1 1D0       0.014200
     38 H11          1.8570    -0.8950    -0.9970 h4         1 1D0       0.146100
     39 H12          0.2130    -0.6850     4.4730 ho         1 1D0       0.456000
     40 H13         -1.8130    -2.7500     2.2520 hc         1 1D0       0.018700
     41 H14         -2.3380    -1.9920     0.6850 hc         1 1D0       0.018700
     42 H15         -2.3510    -1.0240     2.2250 hc         1 1D0       0.018700
     43 H16          3.4370    -0.9500     3.6170 h1         1 1D0       0.053200
     44 H17          3.1240     0.7960     3.2090 h1         1 1D0       0.053200
     45 H19          4.1610     2.0320     5.8690 h1         1 1D0       0.060700
     46 H20          4.6740     0.5720     4.9050 h1         1 1D0       0.060700
@<TRIPOS>BOND
     1     1    17 ar  
     2     1    21 ar  
     3     2     6 1   
     4     2     7 ar  
     5     2     8 ar  
     6     3     4 ar  
     7     3     7 ar  
     8     3    30 1   
     9     4     5 ar  
    10     4    31 1   
    11     5     8 ar  
    12     5    32 1   
    13     6    33 1   
    14     7    34 1   
    15     8     9 1   
    16     9    29 1   
    17     9    35 1   
    18    10    11 1   
    19    11    12 1   
    20    11    13 1   
    21    11    14 1   
    22    14    15 1   
    23    15    16 1   
    24    15    36 1   
    25    15    37 1   
    26    16    17 ar  
    27    16    18 ar  
    28    17    38 1   
    29    18    19 ar  
    30    18    23 1   
    31    19    20 1   
    32    19    21 ar  
    33    20    39 1   
    34    21    22 1   
    35    22    40 1   
    36    22    41 1   
    37    22    42 1   
    38    23    24 1   
    39    23    43 1   
    40    23    44 1   
    41    24    25 2   
    42    25    26 1   
    43    25    29 1   
    44    26    27 1   
    45    26    28 1   
    46    29    45 1   
    47    29    46 1   
@<TRIPOS>SUBSTRUCTURE
     1 1D0         1 TEMP              0 ****  ****    0 ROOT
