@<TRIPOS>MOLECULE
1D1
   47    50     1     0     0
SMALL
bcc


@<TRIPOS>ATOM
      1 O23          0.0000     0.0000     0.0000 o          1 1D1      -0.652500
      2 C13          1.2120     0.0000     0.0000 c          1 1D1       0.619500
      3 N12          1.8950     0.0000     1.1660 n          1 1D1       0.033000
      4 C24          1.1930     0.1290     2.4450 c3         1 1D1       0.057300
      5 C9           3.2890    -0.1250     1.1240 ca         1 1D1      -0.363000
      6 C8           4.0640     0.1420     2.2410 ca         1 1D1       0.435200
      7 N7           5.3810     0.0240     2.1490 nb         1 1D1      -0.660000
      8 C14          1.9730    -0.0070    -1.3010 c3         1 1D1       0.038500
      9 C21          2.3780     1.4240    -1.6590 c3         1 1D1      -0.072400
     10 C22          1.1220     2.2730    -1.8630 c3         1 1D1       0.004900
     11 N15          3.1760    -0.8360    -1.1810 nh         1 1D1      -0.429300
     12 C16          3.9980    -0.7510    -2.3960 c3         1 1D1       0.118500
     13 C20          3.1240    -1.0010    -3.6430 c3         1 1D1      -0.031900
     14 C19          4.0430    -1.8070    -4.5950 c3         1 1D1      -0.023400
     15 C18          4.8140    -2.7350    -3.6240 c3         1 1D1      -0.023400
     16 C17          5.0710    -1.8530    -2.3840 c3         1 1D1      -0.031900
     17 C10          3.9200    -0.5250    -0.0590 ca         1 1D1       0.508200
     18 N11          5.2440    -0.6140    -0.0810 nb         1 1D1      -0.632000
     19 C6           5.9540    -0.3430     1.0100 ca         1 1D1       0.719500
     20 C2           7.4260    -0.4530     0.9510 cc         1 1D1      -0.401800
     21 C3           8.1620    -0.8100    -0.1400 cd         1 1D1      -0.121000
     22 C4           9.5110    -0.7870     0.2420 cd         1 1D1      -0.185000
     23 C5           9.5650    -0.4200     1.5420 cc         1 1D1      -0.329300
     24 N1           8.2960    -0.2090     1.9840 na         1 1D1       0.439900
     25 H1           0.1260     0.0310     2.2830 h1         1 1D1       0.023700
     26 H2           1.4040     1.1000     2.8770 h1         1 1D1       0.023700
     27 H3           1.5280    -0.6480     3.1210 h1         1 1D1       0.023700
     28 H4           3.6020     0.4430     3.1730 h4         1 1D1      -0.005900
     29 H5           1.3400    -0.4100    -2.0820 h1         1 1D1       0.082700
     30 H6           2.9710     1.8430    -0.8560 hc         1 1D1       0.031200
     31 H7           2.9610     1.4170    -2.5720 hc         1 1D1       0.031200
     32 H8           1.3600     3.1240    -2.4910 hc         1 1D1       0.010367
     33 H9           0.3560     1.6750    -2.3400 hc         1 1D1       0.010367
     34 H10          0.7630     2.6220    -0.9030 hc         1 1D1       0.010367
     35 H11          4.4690     0.2220    -2.4650 h1         1 1D1       0.033700
     36 H12          2.8390    -0.0610    -4.0990 hc         1 1D1       0.029700
     37 H13          2.2490    -1.5830    -3.3800 hc         1 1D1       0.029700
     38 H14          3.4530    -2.3890    -5.2930 hc         1 1D1       0.016200
     39 H15          4.7260    -1.1470    -5.1160 hc         1 1D1       0.016200
     40 H16          4.2060    -3.5920    -3.3580 hc         1 1D1       0.016200
     41 H17          5.7520    -3.0490    -4.0650 hc         1 1D1       0.016200
     42 H18          6.0570    -1.4100    -2.4450 hc         1 1D1       0.029700
     43 H19          4.9800    -2.4480    -1.4830 hc         1 1D1       0.029700
     44 H20          7.7760    -1.0650    -1.1190 ha         1 1D1       0.136000
     45 H21         10.3590    -1.0230    -0.3910 ha         1 1D1       0.126000
     46 H22         10.4670    -0.3090     2.1310 h4         1 1D1       0.143000
     47 H23          8.0390     0.0720     2.9100 hn         1 1D1       0.118700
@<TRIPOS>BOND
     1     1     2 2   
     2     2     3 1   
     3     2     8 1   
     4     3     4 1   
     5     3     5 1   
     6     4    25 1   
     7     4    26 1   
     8     4    27 1   
     9     5     6 ar  
    10     5    17 ar  
    11     6     7 ar  
    12     6    28 1   
    13     7    19 ar  
    14     8     9 1   
    15     8    11 1   
    16     8    29 1   
    17     9    10 1   
    18     9    30 1   
    19     9    31 1   
    20    10    32 1   
    21    10    33 1   
    22    10    34 1   
    23    11    12 1   
    24    11    17 1   
    25    12    13 1   
    26    12    16 1   
    27    12    35 1   
    28    13    14 1   
    29    13    36 1   
    30    13    37 1   
    31    14    15 1   
    32    14    38 1   
    33    14    39 1   
    34    15    16 1   
    35    15    40 1   
    36    15    41 1   
    37    16    42 1   
    38    16    43 1   
    39    17    18 ar  
    40    18    19 ar  
    41    19    20 1   
    42    20    21 2   
    43    20    24 1   
    44    21    22 1   
    45    21    44 1   
    46    22    23 2   
    47    22    45 1   
    48    23    24 1   
    49    23    46 1   
    50    24    47 1   
@<TRIPOS>SUBSTRUCTURE
     1 1D1         1 TEMP              0 ****  ****    0 ROOT
