@<TRIPOS>MOLECULE
1D1
   47    50     1     0     0
SMALL
bcc


@<TRIPOS>ATOM
      1 O23         -0.0400     0.0250    -0.0480 o          1 1D1      -0.625500
      2 C13          1.2030     0.0690    -0.0300 c          1 1D1       0.700500
      3 N12          1.9140    -0.0760     1.1550 n          1 1D1      -0.351000
      4 C24          1.2320    -0.2740     2.4070 c3         1 1D1       0.073300
      5 C9           3.3140    -0.0070     1.1400 ca         1 1D1      -0.219000
      6 C8           4.0870     0.0650     2.3230 ca         1 1D1       0.417200
      7 N7           5.4280     0.1230     2.3300 nb         1 1D1      -0.694000
      8 C14          1.9730     0.2900    -1.3460 c3         1 1D1       0.157500
      9 C21          1.7420     1.7480    -1.7780 c3         1 1D1      -0.106400
     10 C22          2.3630     2.7720    -0.8690 c3         1 1D1      -0.101100
     11 N15          3.3430    -0.1840    -1.3160 nh         1 1D1      -0.754300
     12 C16          4.0890    -0.2820    -2.5610 c3         1 1D1       0.226500
     13 C20          4.8510     0.9790    -3.0320 c3         1 1D1      -0.095400
     14 C19          4.9550     0.8800    -4.5480 c3         1 1D1      -0.081400
     15 C18          4.1320    -0.3240    -4.9880 c3         1 1D1      -0.081400
     16 C17          3.2730    -0.7220    -3.7970 c3         1 1D1      -0.095400
     17 C10          4.0530    -0.0130    -0.1120 ca         1 1D1       0.668200
     18 N11          5.4140     0.0640    -0.1050 nb         1 1D1      -0.764000
     19 C6           6.0490     0.1190     1.1090 ca         1 1D1       0.745500
     20 C2           7.5160     0.1880     1.1050 cc         1 1D1      -0.198800
     21 C3           8.3830     0.2550     2.2170 cd         1 1D1      -0.123000
     22 C4           9.7160     0.3050     1.7070 cd         1 1D1      -0.215000
     23 C5           9.6280     0.2660     0.3030 cc         1 1D1      -0.143300
     24 N1           8.2940     0.1960    -0.0590 na         1 1D1      -0.151100
     25 H1           1.6470    -1.1760     2.9300 h1         1 1D1       0.055700
     26 H2           0.1360    -0.4290     2.2160 h1         1 1D1       0.055700
     27 H3           1.3640     0.6260     3.0660 h1         1 1D1       0.055700
     28 H4           3.6110     0.0720     3.3210 h4         1 1D1       0.033100
     29 H5           1.4310    -0.3730    -2.0950 h1         1 1D1       0.095700
     30 H6           0.6300     1.9040    -1.8150 hc         1 1D1       0.063200
     31 H7           2.1370     1.8770    -2.8210 hc         1 1D1       0.063200
     32 H8           1.9310     2.7040     0.1600 hc         1 1D1       0.042033
     33 H9           3.4700     2.6320    -0.7940 hc         1 1D1       0.042033
     34 H10          2.1670     3.7990    -1.2640 hc         1 1D1       0.042033
     35 H11          4.8600    -1.0950    -2.3810 h1         1 1D1       0.074700
     36 H12          5.8660     1.0150    -2.5640 hc         1 1D1       0.052950
     37 H13          4.3120     1.9130    -2.7350 hc         1 1D1       0.052950
     38 H14          6.0210     0.7620    -4.8650 hc         1 1D1       0.045200
     39 H15          4.5690     1.8150    -5.0250 hc         1 1D1       0.045200
     40 H16          3.4950    -0.0790    -5.8730 hc         1 1D1       0.045200
     41 H17          4.8040    -1.1700    -5.2800 hc         1 1D1       0.045200
     42 H18          3.0750    -1.8200    -3.7700 hc         1 1D1       0.052950
     43 H19          2.2900    -0.1910    -3.8640 hc         1 1D1       0.052950
     44 H20          8.0810     0.2660     3.2600 ha         1 1D1       0.167000
     45 H21         10.6290     0.3610     2.2910 ha         1 1D1       0.154000
     46 H22         10.4200     0.2840    -0.4460 h4         1 1D1       0.166000
     47 H23          7.9380     0.1550    -0.9780 hn         1 1D1       0.307700
@<TRIPOS>BOND
     1     1     2 2   
     2     2     3 1   
     3     2     8 1   
     4     3     4 1   
     5     3     5 1   
     6     4    25 1   
     7     4    26 1   
     8     4    27 1   
     9     5     6 ar  
    10     5    17 ar  
    11     6     7 ar  
    12     6    28 1   
    13     7    19 ar  
    14     8     9 1   
    15     8    11 1   
    16     8    29 1   
    17     9    10 1   
    18     9    30 1   
    19     9    31 1   
    20    10    32 1   
    21    10    33 1   
    22    10    34 1   
    23    11    12 1   
    24    11    17 1   
    25    12    13 1   
    26    12    16 1   
    27    12    35 1   
    28    13    14 1   
    29    13    36 1   
    30    13    37 1   
    31    14    15 1   
    32    14    38 1   
    33    14    39 1   
    34    15    16 1   
    35    15    40 1   
    36    15    41 1   
    37    16    42 1   
    38    16    43 1   
    39    17    18 ar  
    40    18    19 ar  
    41    19    20 1   
    42    20    21 2   
    43    20    24 1   
    44    21    22 1   
    45    21    44 1   
    46    22    23 2   
    47    22    45 1   
    48    23    24 1   
    49    23    46 1   
    50    24    47 1   
@<TRIPOS>SUBSTRUCTURE
     1 1D1         1 TEMP              0 ****  ****    0 ROOT
