@<TRIPOS>MOLECULE
1D2
   64    65     1     0     0
SMALL
bcc


@<TRIPOS>ATOM
      1 O2          -0.7140    -1.1720    -0.8690 oh         1 1D2      -0.628800
      2 C10          0.4680    -0.5130    -0.4590 c3         1 1D2       0.097100
      3 C9           0.3730    -0.0760     1.0240 c3         1 1D2       0.310900
      4 O3           1.5840     0.5360     1.4420 os         1 1D2      -0.411600
      5 C15          2.7010    -0.3480     1.3500 c3         1 1D2       0.153100
      6 C16          3.9050     0.4300     1.8440 c3         1 1D2      -0.098100
      7 C14          2.9080    -0.8080    -0.0990 c3         1 1D2      -0.140400
      8 C11          1.6450    -1.5100    -0.5990 c3         1 1D2       0.124500
      9 N            1.7380    -2.0230    -2.0250 nx         1 1D2      -0.671400
     10 C12          0.9080    -3.2480    -2.1970 c3         1 1D2       0.081100
     11 C13          3.1280    -2.2860    -2.4680 c3         1 1D2       0.081100
     12 O1          -0.5520     0.9760     1.0500 os         1 1D2      -0.427600
     13 C8          -1.0180     1.3380     2.3780 c3         1 1D2       0.145100
     14 C7          -1.3910     2.8130     2.2450 c3         1 1D2      -0.088400
     15 C6          -1.6890     3.4850     3.5670 c3         1 1D2      -0.083900
     16 C5          -0.4550     3.6920     4.4200 c3         1 1D2      -0.077400
     17 C4          -0.7850     4.1120     5.8370 c3         1 1D2      -0.079400
     18 C3          -1.3150     2.9890     6.7070 c3         1 1D2      -0.078900
     19 C2          -0.2580     1.9750     7.1100 c3         1 1D2      -0.078400
     20 C1          -0.6710     0.5330     6.8650 c3         1 1D2      -0.078900
     21 C20         -0.1160    -0.0350     5.5710 c3         1 1D2      -0.079400
     22 C19         -1.1410    -0.7850     4.7420 c3         1 1D2      -0.077400
     23 C18         -2.2660     0.0860     4.2170 c3         1 1D2      -0.083900
     24 C17         -2.1820     0.4220     2.7430 c3         1 1D2      -0.088400
     25 H22O        -1.4620    -0.6360    -0.5580 ho         1 1D2       0.462000
     26 H10          0.6370     0.4000    -1.0970 h1         1 1D2       0.086700
     27 H9           0.0930    -0.9340     1.6960 h2         1 1D2       0.065700
     28 H11          1.4400    -2.4120     0.0530 hx         1 1D2       0.111700
     29 H15          2.5150    -1.2470     2.0040 h1         1 1D2       0.050700
     30 H161         4.0770     1.3330     1.2110 hc         1 1D2       0.064367
     31 H162         4.8100    -0.2220     1.8160 hc         1 1D2       0.064367
     32 H163         3.7270     0.7680     2.8940 hc         1 1D2       0.064367
     33 H141         3.1380     0.0870    -0.7330 hc         1 1D2       0.078700
     34 H142         3.7890    -1.5010    -0.1190 hc         1 1D2       0.078700
     35 H121         1.3440    -4.0850    -1.5910 hx         1 1D2       0.106367
     36 H122        -0.1440    -3.0380    -1.8540 hx         1 1D2       0.106367
     37 H131         3.6110    -3.0300    -1.7800 hx         1 1D2       0.106367
     38 H132         3.7180    -1.3300    -2.4690 hx         1 1D2       0.106367
     39 H133         3.1070    -2.7060    -3.5100 hx         1 1D2       0.106367
     40 H8          -0.1680     1.2130     3.1020 h1         1 1D2       0.072700
     41 H71C        -2.2870     2.8990     1.5740 hc         1 1D2       0.050700
     42 H72C        -0.5410     3.3430     1.7380 hc         1 1D2       0.050700
     43 H171        -2.0950    -0.5280     2.1500 hc         1 1D2       0.050700
     44 H172        -3.1430     0.9130     2.4330 hc         1 1D2       0.050700
     45 H61C        -2.4570     2.8910     4.1270 hc         1 1D2       0.053700
     46 H62C        -2.1520     4.4870     3.3530 hc         1 1D2       0.053700
     47 H51C         0.1590     2.7540     4.4480 hc         1 1D2       0.036200
     48 H52C         0.1830     4.4850     3.9450 hc         1 1D2       0.036200
     49 H41C        -1.5500     4.9340     5.8060 hc         1 1D2       0.040950
     50 H42C         0.1390     4.5370     6.3120 hc         1 1D2       0.040950
     51 H31C        -1.7480     3.4450     7.6380 hc         1 1D2       0.043450
     52 H32C        -2.1670     2.4850     6.1800 hc         1 1D2       0.043450
     53 H21C         0.7060     2.1890     6.5770 hc         1 1D2       0.042700
     54 H22C        -0.0450     2.1020     8.2060 hc         1 1D2       0.042700
     55 H11C        -0.3000    -0.0960     7.7190 hc         1 1D2       0.043450
     56 H12C        -1.7900     0.4500     6.8790 hc         1 1D2       0.043450
     57 H201         0.7210    -0.7430     5.8160 hc         1 1D2       0.040950
     58 H202         0.3340     0.7850     4.9530 hc         1 1D2       0.040950
     59 H191        -0.6140    -1.2820     3.8840 hc         1 1D2       0.036200
     60 H192        -1.5800    -1.6040     5.3730 hc         1 1D2       0.036200
     61 H181        -3.2410    -0.4490     4.3830 hc         1 1D2       0.053700
     62 H182        -2.3120     1.0350     4.8130 hc         1 1D2       0.053700
     63 H123         0.9000    -3.5340    -3.2830 hx         1 1D2       0.106367
     64 HN1          1.3400    -1.2900    -2.6320 hn         1 1D2       0.453800
@<TRIPOS>BOND
     1     1     2 1   
     2     1    25 1   
     3     2     3 1   
     4     2     8 1   
     5     2    26 1   
     6     3     4 1   
     7     3    12 1   
     8     3    27 1   
     9     4     5 1   
    10     5     6 1   
    11     5     7 1   
    12     5    29 1   
    13     6    30 1   
    14     6    31 1   
    15     6    32 1   
    16     7     8 1   
    17     7    33 1   
    18     7    34 1   
    19     8     9 1   
    20     8    28 1   
    21     9    10 1   
    22     9    11 1   
    23     9    64 1   
    24    10    35 1   
    25    10    36 1   
    26    10    63 1   
    27    11    37 1   
    28    11    38 1   
    29    11    39 1   
    30    12    13 1   
    31    13    14 1   
    32    13    24 1   
    33    13    40 1   
    34    14    15 1   
    35    14    41 1   
    36    14    42 1   
    37    15    16 1   
    38    15    45 1   
    39    15    46 1   
    40    16    17 1   
    41    16    47 1   
    42    16    48 1   
    43    17    18 1   
    44    17    49 1   
    45    17    50 1   
    46    18    19 1   
    47    18    51 1   
    48    18    52 1   
    49    19    20 1   
    50    19    53 1   
    51    19    54 1   
    52    20    21 1   
    53    20    55 1   
    54    20    56 1   
    55    21    22 1   
    56    21    57 1   
    57    21    58 1   
    58    22    23 1   
    59    22    59 1   
    60    22    60 1   
    61    23    24 1   
    62    23    61 1   
    63    23    62 1   
    64    24    43 1   
    65    24    44 1   
@<TRIPOS>SUBSTRUCTURE
     1 1D2         1 TEMP              0 ****  ****    0 ROOT
