@<TRIPOS>MOLECULE
1D2
   63    64     1     0     0
SMALL
bcc


@<TRIPOS>ATOM
      1 O2           0.0000     0.0000     0.0000 oh         1 1D2      -0.564800
      2 C10          1.4280     0.0000     0.0000 c3         1 1D2       0.158100
      3 C9           1.9400     0.0000     1.4430 c3         1 1D2       0.371900
      4 O3           3.3680    -0.0590     1.4410 os         1 1D2      -0.432600
      5 C15          3.9030    -1.2330     0.8270 c3         1 1D2       0.198100
      6 C16          5.4300    -1.2010     0.9080 c3         1 1D2       0.001900
      7 C14          3.4700    -1.2840    -0.6400 c3         1 1D2      -0.116400
      8 C11          1.9400    -1.2550    -0.7150 c3         1 1D2       0.117500
      9 N            1.5170    -1.2260    -2.1220 n3         1 1D2      -0.525600
     10 C12          2.1980    -0.1510    -2.8540 c3         1 1D2       0.172600
     11 C13          1.7420    -2.5270    -2.7650 c3         1 1D2       0.172600
     12 O1           1.5130     1.1960     2.0990 os         1 1D2      -0.392600
     13 C8           1.8430     1.2440     3.4890 c3         1 1D2       0.165100
     14 C7           2.0540     2.7000     3.9110 c3         1 1D2      -0.060400
     15 C6           3.5220     2.9150     4.2830 c3         1 1D2      -0.037400
     16 C5           3.6090     3.5310     5.6810 c3         1 1D2      -0.037900
     17 C4           4.5390     2.6840     6.5540 c3         1 1D2      -0.038400
     18 C3           3.8140     2.2970     7.8450 c3         1 1D2      -0.037900
     19 C2           3.8750     0.7800     8.0300 c3         1 1D2      -0.038400
     20 C1           2.4620     0.2340     8.2390 c3         1 1D2      -0.037900
     21 C20          2.1960    -0.8910     7.2370 c3         1 1D2      -0.038400
     22 C19          0.9060    -0.5970     6.4690 c3         1 1D2      -0.037900
     23 C18          1.1800    -0.6580     4.9660 c3         1 1D2      -0.037400
     24 C17          0.7020     0.6370     4.3060 c3         1 1D2      -0.060400
     25 H22O        -0.3140     0.8240    -0.3340 ho         1 1D2       0.395000
     26 H10          1.7950     0.8810    -0.5120 h1         1 1D2       0.025700
     27 H9           1.5460    -0.8640     1.9640 h2         1 1D2       0.006700
     28 H11          1.5390    -2.1360    -0.2290 h1         1 1D2       0.048700
     29 H15          3.5290    -2.1100     1.3420 h1         1 1D2       0.006700
     30 H161         5.7930    -0.2620     0.5060 hc         1 1D2       0.011367
     31 H162         5.7390    -1.2940     1.9420 hc         1 1D2       0.011367
     32 H163         5.8400    -2.0220     0.3330 hc         1 1D2       0.011367
     33 H141         3.8360    -2.1970    -1.0940 hc         1 1D2       0.038200
     34 H142         3.8730    -0.4260    -1.1650 hc         1 1D2       0.038200
     35 H121         3.2340    -0.4230    -3.0150 h1         1 1D2       0.004367
     36 H122         2.1510     0.7650    -2.2770 h1         1 1D2       0.004367
     37 H131         1.4660    -3.3210    -2.0810 h1         1 1D2       0.004367
     38 H132         1.1370    -2.5960    -3.6610 h1         1 1D2       0.004367
     39 H133         2.7880    -2.6240    -3.0280 h1         1 1D2       0.004367
     40 H8           2.7520     0.6820     3.6640 h1         1 1D2       0.038700
     41 H71C         1.4280     2.9220     4.7670 hc         1 1D2       0.032450
     42 H72C         1.7890     3.3560     3.0910 hc         1 1D2       0.032450
     43 H171        -0.1350     0.4210     3.6530 hc         1 1D2       0.032450
     44 H172         0.3920     1.3390     5.0710 hc         1 1D2       0.032450
     45 H61C         3.9820     3.5840     3.5650 hc         1 1D2       0.020950
     46 H62C         4.0400     1.9640     4.2740 hc         1 1D2       0.020950
     47 H51C         2.6220     3.5580     6.1260 hc         1 1D2       0.018950
     48 H52C         4.0010     4.5380     5.6090 hc         1 1D2       0.018950
     49 H41C         5.4270     3.2550     6.7950 hc         1 1D2       0.018950
     50 H42C         4.8210     1.7870     6.0160 hc         1 1D2       0.018950
     51 H31C         2.7790     2.6120     7.7870 hc         1 1D2       0.018950
     52 H32C         4.2920     2.7830     8.6870 hc         1 1D2       0.018950
     53 H21C         4.4840     0.5460     8.8950 hc         1 1D2       0.018700
     54 H22C         4.3110     0.3260     7.1480 hc         1 1D2       0.018700
     55 H11C         2.3690    -0.1510     9.2470 hc         1 1D2       0.018950
     56 H12C         1.7420     1.0290     8.0880 hc         1 1D2       0.018950
     57 H201         2.0950    -1.8300     7.7670 hc         1 1D2       0.018950
     58 H202         3.0230    -0.9570     6.5400 hc         1 1D2       0.018950
     59 H191         0.5480     0.3920     6.7310 hc         1 1D2       0.018950
     60 H192         0.1550    -1.3330     6.7300 hc         1 1D2       0.018950
     61 H181         2.2440    -0.7780     4.7970 hc         1 1D2       0.020950
     62 H182         0.6500    -1.5000     4.5360 hc         1 1D2       0.020950
     63 H123         1.7110    -0.0000    -3.8100 h1         1 1D2       0.004367
@<TRIPOS>BOND
     1     1     2 1   
     2     1    25 1   
     3     2     3 1   
     4     2     8 1   
     5     2    26 1   
     6     3     4 1   
     7     3    12 1   
     8     3    27 1   
     9     4     5 1   
    10     5     6 1   
    11     5     7 1   
    12     5    29 1   
    13     6    30 1   
    14     6    31 1   
    15     6    32 1   
    16     7     8 1   
    17     7    33 1   
    18     7    34 1   
    19     8     9 1   
    20     8    28 1   
    21     9    10 1   
    22     9    11 1   
    23    10    35 1   
    24    10    36 1   
    25    10    63 1   
    26    11    37 1   
    27    11    38 1   
    28    11    39 1   
    29    12    13 1   
    30    13    14 1   
    31    13    24 1   
    32    13    40 1   
    33    14    15 1   
    34    14    41 1   
    35    14    42 1   
    36    15    16 1   
    37    15    45 1   
    38    15    46 1   
    39    16    17 1   
    40    16    47 1   
    41    16    48 1   
    42    17    18 1   
    43    17    49 1   
    44    17    50 1   
    45    18    19 1   
    46    18    51 1   
    47    18    52 1   
    48    19    20 1   
    49    19    53 1   
    50    19    54 1   
    51    20    21 1   
    52    20    55 1   
    53    20    56 1   
    54    21    22 1   
    55    21    57 1   
    56    21    58 1   
    57    22    23 1   
    58    22    59 1   
    59    22    60 1   
    60    23    24 1   
    61    23    61 1   
    62    23    62 1   
    63    24    43 1   
    64    24    44 1   
@<TRIPOS>SUBSTRUCTURE
     1 1D2         1 TEMP              0 ****  ****    0 ROOT
