@<TRIPOS>MOLECULE
molecule
   66    67     1     0     0
SMALL
bcc


@<TRIPOS>ATOM
      1 O3           0.0000     0.0000     0.0000 oh         1 1D4      -0.583800
      2 C12          1.4290     0.0000     0.0000 c3         1 1D4       0.138100
      3 C5           1.9400     0.0000     1.4430 c3         1 1D4       0.331900
      4 O2           3.3680    -0.0590     1.4420 os         1 1D4      -0.451600
      5 C6           3.9030    -1.2340     0.8290 c3         1 1D4       0.158100
      6 C7           5.4290    -1.2020     0.9100 c3         1 1D4      -0.086100
      7 C8           3.4700    -1.2840    -0.6390 c3         1 1D4      -0.156400
      8 C9           1.9400    -1.2540    -0.7140 c3         1 1D4       0.160500
      9 N            1.5180    -1.2250    -2.1210 n3         1 1D4      -0.713600
     10 C10          2.2010    -0.1510    -2.8530 c3         1 1D4       0.147600
     11 C11          1.7430    -2.5270    -2.7650 c3         1 1D4       0.147600
     12 O1           1.5130     1.1950     2.1000 os         1 1D4      -0.402600
     13 C4           1.8420     1.2440     3.4900 c3         1 1D4       0.141100
     14 C13          2.0530     2.6980     3.9140 c3         1 1D4      -0.092400
     15 C14          2.9090     2.7430     5.1800 c3         1 1D4      -0.079400
     16 C15          2.7860     4.1230     5.8300 c3         1 1D4      -0.084400
     17 C16          1.9670     4.0160     7.1180 c3         1 1D4      -0.082900
     18 C17          0.5810     4.6210     6.8950 c3         1 1D4      -0.083400
     19 C18         -0.4540     3.8540     7.7200 c3         1 1D4      -0.083900
     20 C19         -1.6970     3.5930     6.8680 c3         1 1D4      -0.083900
     21 C20         -1.9050     2.0850     6.7160 c3         1 1D4      -0.083400
     22 C21         -2.5010     1.7840     5.3390 c3         1 1D4      -0.082900
     23 C1          -1.7570     0.6080     4.7060 c3         1 1D4      -0.084400
     24 C2          -0.6400     1.1350     3.8010 c3         1 1D4      -0.079400
     25 C3           0.7090     0.6250     4.3090 c3         1 1D4      -0.092400
     26 H3          -0.3140     0.8060    -0.3740 ho         1 1D4       0.410000
     27 H12          1.7950     0.8810    -0.5120 h1         1 1D4       0.055700
     28 H5           1.5450    -0.8640     1.9640 h2         1 1D4       0.039700
     29 H9           1.5380    -2.1350    -0.2280 h1         1 1D4       0.075700
     30 H6           3.5270    -2.1110     1.3430 h1         1 1D4       0.035700
     31 H71C         5.8380    -2.0460     0.3680 hc         1 1D4       0.046033
     32 H72C         5.7370    -1.2550     1.9470 hc         1 1D4       0.046033
     33 H73C         5.7950    -0.2810     0.4720 hc         1 1D4       0.046033
     34 H81C         3.8740    -0.4260    -1.1630 hc         1 1D4       0.059200
     35 H82C         3.8370    -2.1970    -1.0920 hc         1 1D4       0.059200
     36 H101         2.1440     0.7680    -2.2830 h1         1 1D4       0.034033
     37 H102         1.7220    -0.0090    -3.8150 h1         1 1D4       0.034033
     38 H103         3.2390    -0.4200    -3.0030 h1         1 1D4       0.034033
     39 H111         1.4440    -3.3200    -2.0900 h1         1 1D4       0.034033
     40 H112         1.1570    -2.5870    -3.6740 h1         1 1D4       0.034033
     41 H113         2.7940    -2.6340    -3.0050 h1         1 1D4       0.034033
     42 H4           2.7540     0.6850     3.6610 h1         1 1D4       0.052700
     43 H131         2.5550     3.2360     3.1200 hc         1 1D4       0.049200
     44 H132         1.0920     3.1590     4.1110 hc         1 1D4       0.049200
     45 H31C         0.8280     0.8980     5.3510 hc         1 1D4       0.049200
     46 H32C         0.7450    -0.4540     4.2150 hc         1 1D4       0.049200
     47 H141         2.5670     1.9850     5.8750 hc         1 1D4       0.047700
     48 H142         3.9440     2.5570     4.9230 hc         1 1D4       0.047700
     49 H151         2.2930     4.8020     5.1450 hc         1 1D4       0.041700
     50 H152         3.7750     4.5010     6.0630 hc         1 1D4       0.041700
     51 H161         2.4720     4.5520     7.9120 hc         1 1D4       0.041200
     52 H162         1.8660     2.9730     7.3950 hc         1 1D4       0.041200
     53 H171         0.5880     5.6600     7.2010 hc         1 1D4       0.041950
     54 H172         0.3240     4.5570     5.8440 hc         1 1D4       0.041950
     55 H181        -0.0320     2.9100     8.0410 hc         1 1D4       0.041450
     56 H182        -0.7290     4.4400     8.5880 hc         1 1D4       0.041450
     57 H191        -1.5650     4.0390     5.8890 hc         1 1D4       0.041450
     58 H192        -2.5630     4.0300     7.3490 hc         1 1D4       0.041450
     59 H201        -2.5830     1.7350     7.4860 hc         1 1D4       0.041950
     60 H202        -0.9540     1.5770     6.8160 hc         1 1D4       0.041950
     61 H211        -2.4030     2.6570     4.7050 hc         1 1D4       0.041200
     62 H212        -3.5500     1.5320     5.4470 hc         1 1D4       0.041200
     63 H11C        -2.4490     0.0170     4.1180 hc         1 1D4       0.041700
     64 H12C        -1.3280    -0.0100     5.4860 hc         1 1D4       0.041700
     65 H21C        -0.8010     0.7850     2.7890 hc         1 1D4       0.047700
     66 H22C        -0.6450     2.2180     3.8140 hc         1 1D4       0.047700
@<TRIPOS>BOND
     1     1     2 1   
     2     2     3 1   
     3     2     8 1   
     4     3     4 1   
     5     3    12 1   
     6     4     5 1   
     7     5     6 1   
     8     5     7 1   
     9     7     8 1   
    10     8     9 1   
    11     9    10 1   
    12     9    11 1   
    13    12    13 1   
    14    13    14 1   
    15    13    25 1   
    16    14    15 1   
    17    15    16 1   
    18    16    17 1   
    19    17    18 1   
    20    18    19 1   
    21    19    20 1   
    22    20    21 1   
    23    21    22 1   
    24    22    23 1   
    25    23    24 1   
    26    24    25 1   
    27     1    26 1   
    28     2    27 1   
    29     3    28 1   
    30     8    29 1   
    31     5    30 1   
    32     6    31 1   
    33     6    32 1   
    34     6    33 1   
    35     7    34 1   
    36     7    35 1   
    37    10    36 1   
    38    10    37 1   
    39    10    38 1   
    40    11    39 1   
    41    11    40 1   
    42    11    41 1   
    43    13    42 1   
    44    14    43 1   
    45    14    44 1   
    46    25    45 1   
    47    25    46 1   
    48    15    47 1   
    49    15    48 1   
    50    16    49 1   
    51    16    50 1   
    52    17    51 1   
    53    17    52 1   
    54    18    53 1   
    55    18    54 1   
    56    19    55 1   
    57    19    56 1   
    58    20    57 1   
    59    20    58 1   
    60    21    59 1   
    61    21    60 1   
    62    22    61 1   
    63    22    62 1   
    64    23    63 1   
    65    23    64 1   
    66    24    65 1   
    67    24    66 1   
@<TRIPOS>SUBSTRUCTURE
     1 1D4         1 TEMP              0 ****  ****    0 ROOT
