@<TRIPOS>MOLECULE
1D4
   67    68     1     0     0
SMALL
bcc


@<TRIPOS>ATOM
      1 O3           2.6700     1.0990    -2.1880 oh         1 1D4      -0.626800
      2 C12          2.6690     0.1960    -1.1000 c3         1 1D4       0.103100
      3 C5           1.4070     0.3860    -0.2170 c3         1 1D4       0.313900
      4 O2           1.4030    -0.5560     0.8450 os         1 1D4      -0.410600
      5 C6           1.3650    -1.9070     0.3810 c3         1 1D4       0.153100
      6 C7           1.3440    -2.7840     1.6180 c3         1 1D4      -0.098100
      7 C8           2.5920    -2.2150    -0.4850 c3         1 1D4      -0.144400
      8 C9           2.6380    -1.2390    -1.6650 c3         1 1D4       0.122500
      9 N            3.7830    -1.5470    -2.6070 nx         1 1D4      -0.668400
     10 C10          5.0650    -0.9370    -2.1700 c3         1 1D4       0.081600
     11 C11          3.4600    -1.1300    -3.9980 c3         1 1D4       0.081600
     12 O1           1.5840     1.6160     0.4280 os         1 1D4      -0.426600
     13 C4           0.3770     2.2430     0.9320 c3         1 1D4       0.154100
     14 C13          0.1660     1.8240     2.3830 c3         1 1D4      -0.099400
     15 C14         -1.2960     1.8030     2.7840 c3         1 1D4      -0.077900
     16 C15         -1.8060     3.1580     3.2280 c3         1 1D4      -0.085400
     17 C16         -3.2760     3.1260     3.5950 c3         1 1D4      -0.077900
     18 C17         -4.1980     3.2460     2.3950 c3         1 1D4      -0.078400
     19 C18         -4.8160     4.6220     2.2440 c3         1 1D4      -0.078900
     20 C19         -3.8250     5.6940     1.8380 c3         1 1D4      -0.078900
     21 C20         -3.4390     5.6230     0.3710 c3         1 1D4      -0.078400
     22 C21         -1.9390     5.6580     0.1330 c3         1 1D4      -0.077900
     23 C1          -1.4470     4.3830    -0.5240 c3         1 1D4      -0.085400
     24 C2           0.0650     4.2820    -0.5320 c3         1 1D4      -0.077900
     25 C3           0.6290     3.7410     0.7660 c3         1 1D4      -0.099400
     26 H3           2.4290     1.9710    -1.8350 ho         1 1D4       0.459000
     27 H12          3.5810     0.3640    -0.4610 h1         1 1D4       0.087700
     28 H5           0.4630     0.3250    -0.8240 h2         1 1D4       0.061700
     29 H9           1.6930    -1.3540    -2.2800 hx         1 1D4       0.109700
     30 H6           0.4290    -2.0600    -0.2290 h1         1 1D4       0.050700
     31 H71C         0.4510    -2.5310     2.2410 hc         1 1D4       0.064367
     32 H72C         2.2590    -2.6170     2.2340 hc         1 1D4       0.064367
     33 H73C         1.2890    -3.8560     1.3150 hc         1 1D4       0.064367
     34 H81C         3.5150    -2.1140     0.1440 hc         1 1D4       0.078200
     35 H82C         2.5180    -3.2740    -0.8440 hc         1 1D4       0.078200
     36 H101         5.2610    -1.2080    -1.0980 hx         1 1D4       0.108033
     37 H102         5.8960    -1.3240    -2.8170 hx         1 1D4       0.108033
     38 H103         4.9990     0.1820    -2.2730 hx         1 1D4       0.108033
     39 H111         4.3410    -1.3450    -4.6600 hx         1 1D4       0.108033
     40 H112         2.5660    -1.7030    -4.3610 hx         1 1D4       0.108033
     41 H113         3.2320    -0.0270    -4.0150 hx         1 1D4       0.108033
     42 H4          -0.4960     1.9140     0.3020 h1         1 1D4       0.049700
     43 H131         0.5950     0.7930     2.5130 hc         1 1D4       0.065950
     44 H132         0.7430     2.5070     3.0590 hc         1 1D4       0.065950
     45 H31C         1.7370     3.9250     0.7990 hc         1 1D4       0.065950
     46 H32C         0.1760     4.2870     1.6350 hc         1 1D4       0.065950
     47 H141        -1.9260     1.4270     1.9350 hc         1 1D4       0.039950
     48 H142        -1.4200     1.0750     3.6310 hc         1 1D4       0.039950
     49 H151        -1.6450     3.9070     2.4070 hc         1 1D4       0.042700
     50 H152        -1.2110     3.5000     4.1150 hc         1 1D4       0.042700
     51 H161        -3.4860     3.9630     4.3140 hc         1 1D4       0.043950
     52 H162        -3.4980     2.1690     4.1390 hc         1 1D4       0.043950
     53 H171        -5.0310     2.5000     2.5020 hc         1 1D4       0.039450
     54 H172        -3.6420     2.9820     1.4560 hc         1 1D4       0.039450
     55 H181        -5.6370     4.5670     1.4800 hc         1 1D4       0.043700
     56 H182        -5.2910     4.9180     3.2170 hc         1 1D4       0.043700
     57 H191        -4.2830     6.6980     2.0440 hc         1 1D4       0.043700
     58 H192        -2.9200     5.6150     2.4960 hc         1 1D4       0.043700
     59 H201        -3.8730     4.6950    -0.0890 hc         1 1D4       0.039450
     60 H202        -3.9120     6.4880    -0.1680 hc         1 1D4       0.039450
     61 H211        -1.6820     6.5300    -0.5240 hc         1 1D4       0.043950
     62 H212        -1.3880     5.8140     1.0980 hc         1 1D4       0.043950
     63 H11C        -1.8840     3.4980     0.0110 hc         1 1D4       0.042700
     64 H12C        -1.8230     4.3500    -1.5810 hc         1 1D4       0.042700
     65 H21C         0.3890     3.6150    -1.3750 hc         1 1D4       0.039950
     66 H22C         0.5050     5.2960    -0.7240 hc         1 1D4       0.039950
     67 HN1          3.9030    -2.5700    -2.6010 hn         1 1D4       0.441800
@<TRIPOS>BOND
     1     1     2 1   
     2     1    26 1   
     3     2     3 1   
     4     2     8 1   
     5     2    27 1   
     6     3     4 1   
     7     3    12 1   
     8     3    28 1   
     9     4     5 1   
    10     5     6 1   
    11     5     7 1   
    12     5    30 1   
    13     6    31 1   
    14     6    32 1   
    15     6    33 1   
    16     7     8 1   
    17     7    34 1   
    18     7    35 1   
    19     8     9 1   
    20     8    29 1   
    21     9    10 1   
    22     9    11 1   
    23     9    67 1   
    24    10    36 1   
    25    10    37 1   
    26    10    38 1   
    27    11    39 1   
    28    11    40 1   
    29    11    41 1   
    30    12    13 1   
    31    13    14 1   
    32    13    25 1   
    33    13    42 1   
    34    14    15 1   
    35    14    43 1   
    36    14    44 1   
    37    15    16 1   
    38    15    47 1   
    39    15    48 1   
    40    16    17 1   
    41    16    49 1   
    42    16    50 1   
    43    17    18 1   
    44    17    51 1   
    45    17    52 1   
    46    18    19 1   
    47    18    53 1   
    48    18    54 1   
    49    19    20 1   
    50    19    55 1   
    51    19    56 1   
    52    20    21 1   
    53    20    57 1   
    54    20    58 1   
    55    21    22 1   
    56    21    59 1   
    57    21    60 1   
    58    22    23 1   
    59    22    61 1   
    60    22    62 1   
    61    23    24 1   
    62    23    63 1   
    63    23    64 1   
    64    24    25 1   
    65    24    65 1   
    66    24    66 1   
    67    25    45 1   
    68    25    46 1   
@<TRIPOS>SUBSTRUCTURE
     1 1D4         1 TEMP              0 ****  ****    0 ROOT
