@<TRIPOS>MOLECULE
1D5
   43    46     1     0     0
SMALL
bcc


@<TRIPOS>ATOM
      1 OAA          0.2420     0.9490     0.4130 o          1 1D5      -0.835800
      2 CAS          0.9910    -0.0200     0.1000 c          1 1D5       0.919600
      3 OAD          1.2060    -1.0250     0.8300 o          1 1D5      -0.835800
      4 CAP          1.6580    -0.0040    -1.2990 c3         1 1D5      -0.182100
      5 CAZ          2.6320     1.0950    -1.4790 ca         1 1D5      -0.010300
      6 CAJ          3.8780     0.8620    -2.0730 ca         1 1D5      -0.125500
      7 CAM          4.7830     1.8970    -2.2870 ca         1 1D5      -0.151500
      8 CAI          2.3200     2.4030    -1.0760 ca         1 1D5      -0.125500
      9 CAL          3.2070     3.4500    -1.2840 ca         1 1D5      -0.151500
     10 CBB          4.4520     3.2140    -1.9100 ca         1 1D5      -0.005400
     11 NBE          5.3370     4.2920    -2.1640 n          1 1D5      -0.354000
     12 CBD          6.4810     4.1750    -3.0930 c3         1 1D5       0.236200
     13 CBC          6.0870     4.0950    -4.5250 cc         1 1D5      -0.152400
     14 SAQ          4.5840     4.4850    -5.1490 ss         1 1D5       0.164200
     15 CAN          5.0050     4.1300    -6.7070 cc         1 1D5      -0.181100
     16 CAX          6.3150     3.6880    -6.8020 cd         1 1D5      -0.069900
     17 BrA          7.1580     3.1900    -8.3680 br         1 1D5      -0.069100
     18 CAO          6.9480     3.6630    -5.5220 cd         1 1D5      -0.123000
     19 CAV          5.4790     5.4230    -1.3650 c          1 1D5       0.669700
     20 OAC          4.7500     5.8650    -0.4660 o          1 1D5      -0.606500
     21 CAU          6.7480     6.1300    -1.8190 ce         1 1D5       0.060900
     22 OAE          7.1640     7.2760    -1.2310 oh         1 1D5      -0.466100
     23 CAW          7.3420     5.4230    -2.8110 cf         1 1D5      -0.244400
     24 CAT          8.6140     5.5990    -3.5110 c          1 1D5       0.655900
     25 OAB          9.3870     4.6400    -3.6650 o          1 1D5      -0.547100
     26 CBA          8.9320     6.9230    -4.0450 cc         1 1D5      -0.205700
     27 SAR         10.3680     7.2600    -4.8490 ss         1 1D5       0.142200
     28 CAY          9.9630     8.8540    -5.1340 cc         1 1D5      -0.042700
     29 ClA         10.9590     9.9270    -5.9450 cl         1 1D5      -0.037400
     30 CAH          8.7120     9.1710    -4.6200 cd         1 1D5      -0.166000
     31 CAK          8.1170     8.0460    -3.9880 cd         1 1D5      -0.084000
     32 H2           2.1480    -0.9960    -1.4720 hc         1 1D5       0.041700
     33 H3           0.8350     0.1190    -2.0510 hc         1 1D5       0.041700
     34 H4           4.1550    -0.1610    -2.3710 ha         1 1D5       0.163500
     35 H5           5.7480     1.6670    -2.7620 ha         1 1D5       0.132000
     36 H6           1.3550     2.5680    -0.5550 ha         1 1D5       0.163500
     37 H7           2.9410     4.4620    -0.9410 ha         1 1D5       0.132000
     38 H8           7.1000     3.2630    -2.8300 h1         1 1D5       0.105700
     39 H9           4.3140     4.2260    -7.5450 h4         1 1D5       0.179000
     40 H10          7.9840     3.3510    -5.3560 ha         1 1D5       0.177000
     41 H11          6.5460     7.4550    -0.4950 ho         1 1D5       0.451000
     42 H12          8.2360    10.1510    -4.6840 ha         1 1D5       0.164000
     43 H13          7.1370     8.0780    -3.5010 ha         1 1D5       0.171000
@<TRIPOS>BOND
     1     1     2 1   
     2     2     3 1   
     3     2     4 1   
     4     4     5 1   
     5     4    32 1   
     6     4    33 1   
     7     5     6 ar  
     8     5     8 ar  
     9     6     7 ar  
    10     6    34 1   
    11     7    10 ar  
    12     7    35 1   
    13     8     9 ar  
    14     8    36 1   
    15     9    10 ar  
    16     9    37 1   
    17    10    11 1   
    18    11    12 1   
    19    11    19 1   
    20    12    13 1   
    21    12    23 1   
    22    12    38 1   
    23    13    14 1   
    24    13    18 2   
    25    14    15 1   
    26    15    16 2   
    27    15    39 1   
    28    16    17 1   
    29    16    18 1   
    30    18    40 1   
    31    19    20 2   
    32    19    21 1   
    33    21    22 1   
    34    21    23 2   
    35    22    41 1   
    36    23    24 1   
    37    24    25 2   
    38    24    26 1   
    39    26    27 1   
    40    26    31 2   
    41    27    28 1   
    42    28    29 1   
    43    28    30 2   
    44    30    31 1   
    45    30    42 1   
    46    31    43 1   
@<TRIPOS>SUBSTRUCTURE
     1 1D5         1 TEMP              0 ****  ****    0 ROOT
