@<TRIPOS>MOLECULE
molecule
   43    46     1     0     0
SMALL
bcc


@<TRIPOS>ATOM
      1 OAA          0.0000     0.0000     0.0000 o          1 1D5      -0.841800
      2 CAS          1.3420     0.0000     0.0000 c          1 1D5       0.893600
      3 OAD          1.9460     0.0000     1.0470 o          1 1D5      -0.841800
      4 CAP          2.0960     0.0010    -1.3050 c3         1 1D5      -0.155100
      5 CAZ          3.5780     0.0010    -1.0290 ca         1 1D5      -0.010300
      6 CAJ          4.2540     1.2000    -0.8980 ca         1 1D5      -0.103000
      7 CAM          5.6120     1.2030    -0.6450 ca         1 1D5      -0.156500
      8 CAI          4.2570    -1.1980    -0.9040 ca         1 1D5      -0.103000
      9 CAL          5.6140    -1.2010    -0.6510 ca         1 1D5      -0.156500
     10 CBB          6.2980     0.0010    -0.5240 ca         1 1D5       0.018600
     11 NBE          7.6720     0.0020    -0.2690 n          1 1D5      -0.346000
     12 CBD          8.5230    -1.1850    -0.1170 c3         1 1D5       0.234200
     13 CBC          8.5010    -2.0040    -1.3810 cc         1 1D5      -0.047400
     14 SAQ          8.5860    -1.3520    -3.0130 ss         1 1D5      -0.056800
     15 CAN          8.4970    -2.9700    -3.6960 cc         1 1D5      -0.055100
     16 CAX          8.4130    -3.8680    -2.7120 cd         1 1D5      -0.041900
     17 BrA          8.2990    -5.7270    -3.0370 br         1 1D5      -0.088100
     18 CAO          8.4210    -3.3350    -1.4340 cd         1 1D5      -0.130000
     19 CAV          8.4500     1.0890    -0.1250 c          1 1D5       0.662700
     20 OAC          8.0630     2.2400    -0.1970 o          1 1D5      -0.605500
     21 CAU          9.8460     0.6810     0.1340 cf         1 1D5       0.073900
     22 OAE         10.8860     1.5260     0.3270 oh         1 1D5      -0.472100
     23 CAW          9.9190    -0.6690     0.1460 ce         1 1D5      -0.246400
     24 CAT         11.1240    -1.4780     0.3650 c          1 1D5       0.644900
     25 OAB         12.0350    -1.4460    -0.4440 o          1 1D5      -0.494100
     26 CBA         11.2320    -2.3230     1.5560 cc         1 1D5      -0.147700
     27 SAR          9.9780    -2.5380     2.7700 ss         1 1D5      -0.001800
     28 CAY         10.9640    -3.6040     3.6670 cc         1 1D5       0.045300
     29 ClA         10.4890    -4.3690     5.1510 cl         1 1D5      -0.050400
     30 CAH         12.1550    -3.7710     3.0710 cd         1 1D5      -0.174000
     31 CAK         12.3230    -3.0760     1.9000 cd         1 1D5      -0.077000
     32 H2           1.8350    -0.8840    -1.8740 hc         1 1D5       0.041700
     33 H3           1.8340     0.8850    -1.8730 hc         1 1D5       0.041700
     34 H4           3.7190     2.1370    -0.9930 ha         1 1D5       0.137000
     35 H5           6.1420     2.1420    -0.5450 ha         1 1D5       0.138000
     36 H6           3.7230    -2.1350    -1.0030 ha         1 1D5       0.137000
     37 H7           6.1450    -2.1400    -0.5550 ha         1 1D5       0.138000
     38 H8           8.1830    -1.7780     0.7230 h1         1 1D5       0.093700
     39 H9           8.5080    -3.2030    -4.7540 h4         1 1D5       0.180000
     40 H10          8.3590    -3.9510    -0.5450 ha         1 1D5       0.158000
     41 H11         10.7110     2.0750     1.0730 ho         1 1D5       0.436000
     42 H12         12.9250    -4.4120     3.4830 ha         1 1D5       0.159000
     43 H13         13.2310    -3.1140     1.3100 ha         1 1D5       0.171000
@<TRIPOS>BOND
     1     3     2 1
     2     2     1 1
     3     2     4 1
     4     4     5 1
     5     6     5 ar
     6     6     7 ar
     7     5     8 ar
     8     7    10 ar
     9     8     9 ar
    10    10     9 ar
    11    10    11 1
    12    11    12 1
    13    11    19 1
    14    20    19 2
    15    12    23 1
    16    12    13 1
    17    19    21 1
    18    23    21 2
    19    23    24 1
    20    21    22 1
    21    18    13 2
    22    18    16 1
    23    13    14 1
    24    25    24 2
    25    24    26 1
    26    16    17 1
    27    16    15 2
    28    26    27 1
    29    26    31 2
    30    27    28 1
    31    14    15 1
    32    31    30 1
    33    28    30 2
    34    28    29 1
    35     4    32 1
    36     4    33 1
    37     6    34 1
    38     7    35 1
    39     8    36 1
    40     9    37 1
    41    12    38 1
    42    15    39 1
    43    18    40 1
    44    22    41 1
    45    30    42 1
    46    31    43 1
@<TRIPOS>SUBSTRUCTURE
     1 1D5         1 TEMP              0 ****  ****    0 ROOT
