@<TRIPOS>MOLECULE
1D5
   43    46     1     0     0
SMALL
bcc


@<TRIPOS>ATOM
      1 OAA          0.0000     0.0000     0.0000 o          1 1D5      -0.893800
      2 CAS          1.3420     0.0000     0.0000 c          1 1D5       0.981600
      3 OAD          1.9460     0.0000     1.0470 o          1 1D5      -0.893800
      4 CAP          2.0960     0.0010    -1.3050 c3         1 1D5      -0.097100
      5 CAZ          3.5780     0.0010    -1.0290 ca         1 1D5       0.000700
      6 CAJ          4.2540     1.2000    -0.8980 ca         1 1D5      -0.076000
      7 CAM          5.6120     1.2030    -0.6450 ca         1 1D5      -0.140000
      8 CAI          4.2570    -1.1980    -0.9040 ca         1 1D5      -0.076000
      9 CAL          5.6140    -1.2010    -0.6510 ca         1 1D5      -0.140000
     10 CBB          6.2980     0.0010    -0.5240 ca         1 1D5      -0.127400
     11 NBE          7.6720     0.0020    -0.2690 n          1 1D5       0.065000
     12 CBD          8.5230    -1.1850    -0.1170 c3         1 1D5       0.161200
     13 CBC          8.5010    -2.0040    -1.3810 cc         1 1D5       0.004600
     14 SAQ          8.5860    -1.3520    -3.0130 ss         1 1D5      -0.213800
     15 CAN          8.4970    -2.9700    -3.6960 cc         1 1D5       0.028900
     16 CAX          8.4130    -3.8680    -2.7120 cd         1 1D5       0.009100
     17 BrA          8.2990    -5.7270    -3.0370 br         1 1D5      -0.115100
     18 CAO          8.4210    -3.3350    -1.4340 cd         1 1D5      -0.105000
     19 CAV          8.4500     1.0890    -0.1250 c          1 1D5       0.573700
     20 OAC          8.0630     2.2400    -0.1970 o          1 1D5      -0.653500
     21 CAU          9.8460     0.6810     0.1340 ce         1 1D5       0.098900
     22 OAE         10.8860     1.5260     0.3270 oh         1 1D5      -0.452100
     23 CAW          9.9190    -0.6690     0.1460 cf         1 1D5      -0.285400
     24 CAT         11.1240    -1.4780     0.3650 c          1 1D5       0.714900
     25 OAB         12.0350    -1.4460    -0.4440 o          1 1D5      -0.534100
     26 CBA         11.2320    -2.3230     1.5560 cc         1 1D5      -0.092700
     27 SAR          9.9780    -2.5380     2.7700 ss         1 1D5      -0.170800
     28 CAY         10.9640    -3.6040     3.6670 cc         1 1D5       0.031300
     29 ClA         10.4890    -4.3690     5.1510 cl         1 1D5       0.061600
     30 CAH         12.1550    -3.7710     3.0710 cd         1 1D5      -0.152000
     31 CAK         12.3230    -3.0760     1.9000 cd         1 1D5      -0.043000
     32 H2           1.8350    -0.8840    -1.8740 hc         1 1D5       0.014200
     33 H3           1.8340     0.8850    -1.8730 hc         1 1D5       0.014200
     34 H4           3.7190     2.1370    -0.9930 ha         1 1D5       0.108000
     35 H5           6.1420     2.1420    -0.5450 ha         1 1D5       0.123000
     36 H6           3.7230    -2.1350    -1.0030 ha         1 1D5       0.108000
     37 H7           6.1450    -2.1400    -0.5550 ha         1 1D5       0.123000
     38 H8           8.1830    -1.7780     0.7230 h1         1 1D5       0.066700
     39 H9           8.5080    -3.2030    -4.7540 h4         1 1D5       0.157000
     40 H10          8.3590    -3.9510    -0.5450 ha         1 1D5       0.135000
     41 H11         10.7110     2.0750     1.0730 ho         1 1D5       0.414000
     42 H12         12.9250    -4.4120     3.4830 ha         1 1D5       0.129000
     43 H13         13.2310    -3.1140     1.3100 ha         1 1D5       0.137000
@<TRIPOS>BOND
     1     1     2 1   
     2     2     3 1   
     3     2     4 1   
     4     4     5 1   
     5     4    32 1   
     6     4    33 1   
     7     5     6 ar  
     8     5     8 ar  
     9     6     7 ar  
    10     6    34 1   
    11     7    10 ar  
    12     7    35 1   
    13     8     9 ar  
    14     8    36 1   
    15     9    10 ar  
    16     9    37 1   
    17    10    11 1   
    18    11    12 1   
    19    11    19 1   
    20    12    13 1   
    21    12    23 1   
    22    12    38 1   
    23    13    14 1   
    24    13    18 2   
    25    14    15 1   
    26    15    16 2   
    27    15    39 1   
    28    16    17 1   
    29    16    18 1   
    30    18    40 1   
    31    19    20 2   
    32    19    21 1   
    33    21    22 1   
    34    21    23 2   
    35    22    41 1   
    36    23    24 1   
    37    24    25 2   
    38    24    26 1   
    39    26    27 1   
    40    26    31 2   
    41    27    28 1   
    42    28    29 1   
    43    28    30 2   
    44    30    31 1   
    45    30    42 1   
    46    31    43 1   
@<TRIPOS>SUBSTRUCTURE
     1 1D5         1 TEMP              0 ****  ****    0 ROOT
