@<TRIPOS>MOLECULE
molecule
   55    59     1     0     0
SMALL
bcc


@<TRIPOS>ATOM
      1 CAA          0.0000     0.0000     0.0000 c3         1 1D6      -0.046800
      2 CBA          1.5070     0.0000     0.0000 ca         1 1D6      -0.100300
      3 CAO          2.1940     0.0000     1.1970 ca         1 1D6      -0.070000
      4 CAI          2.1970    -0.0050    -1.1980 ca         1 1D6      -0.102000
      5 CAH          3.5820    -0.0050    -1.2070 ca         1 1D6      -0.136000
      6 CAJ          4.2810     0.0000    -0.0190 ca         1 1D6      -0.095000
      7 CBD          3.5900    -0.0000     1.1960 ca         1 1D6      -0.168600
      8 CAW          4.3340     0.0010     2.4730 c          1 1D6       0.611900
      9 OAC          3.7310     0.0680     3.5280 o          1 1D6      -0.501100
     10 CAZ          5.7980    -0.0800     2.4700 ce         1 1D6      -0.229400
     11 CAY          6.6610     0.8790     2.8780 cf         1 1D6       0.061900
     12 OAF          6.3110     2.0920     3.3660 oh         1 1D6      -0.476100
     13 CAX          8.0450     0.3920     2.7080 c          1 1D6       0.663700
     14 OAD          9.0460     1.0230     2.9860 o          1 1D6      -0.605500
     15 NBJ          8.0340    -0.8540     2.2000 n          1 1D6      -0.349000
     16 CBF          9.1570    -1.6320     1.9050 ca         1 1D6       0.022600
     17 CAM          9.0010    -2.9070     1.3770 ca         1 1D6      -0.158000
     18 CAK         10.1130    -3.6710     1.0810 ca         1 1D6      -0.102500
     19 CBB         11.3800    -3.1680     1.3120 ca         1 1D6      -0.012300
     20 CAS         12.5910    -4.0050     0.9880 c3         1 1D6      -0.154100
     21 CAV         13.0190    -3.7410    -0.4320 c          1 1D6       0.892600
     22 OAE         14.0840    -4.3800    -0.9430 o          1 1D6      -0.843300
     23 OAB         12.4030    -2.9540    -1.1130 o          1 1D6      -0.843300
     24 CAL         11.5390    -1.8990     1.8380 ca         1 1D6      -0.102500
     25 CAN         10.4310    -1.1300     2.1350 ca         1 1D6      -0.158000
     26 CBI          6.6330    -1.2540     2.0150 c3         1 1D6       0.205200
     27 CBE          6.3290    -2.4720     2.8480 ca         1 1D6      -0.087300
     28 CAQ          5.6280    -3.5280     2.2950 ca         1 1D6      -0.100000
     29 CBG          5.3460    -4.6490     3.0590 ca         1 1D6       0.056100
     30 OAT          4.6840    -5.8050     2.7600 os         1 1D6      -0.324900
     31 CAR          4.3520    -6.3980     4.0300 c3         1 1D6       0.331200
     32 OAU          5.3740    -5.9030     4.9150 os         1 1D6      -0.315900
     33 CBH          5.7710    -4.7090     4.3840 ca         1 1D6       0.059100
     34 CBC          6.4730    -3.6480     4.9320 ca         1 1D6       0.046400
     35 ClA          7.0040    -3.7180     6.5830 cl         1 1D6      -0.090400
     36 CAP          6.7560    -2.5340     4.1620 ca         1 1D6      -0.078000
     37 H1          -0.3610     0.5290    -0.8740 hc         1 1D6       0.043367
     38 H2          -0.3610    -1.0210    -0.0220 hc         1 1D6       0.043367
     39 H3          -0.3610     0.4920     0.8950 hc         1 1D6       0.043367
     40 H4           1.6520    -0.0000     2.1350 ha         1 1D6       0.152000
     41 H5           1.6520    -0.0090    -2.1350 ha         1 1D6       0.131000
     42 H6           4.1170    -0.0070    -2.1490 ha         1 1D6       0.139000
     43 H7           5.3640     0.0000    -0.0270 ha         1 1D6       0.142000
     44 H10          6.5510     2.7610     2.7470 ho         1 1D6       0.432000
     45 H11          8.0080    -3.3010     1.1950 ha         1 1D6       0.136500
     46 H12          9.9930    -4.6650     0.6680 ha         1 1D6       0.136500
     47 H13         13.3990    -3.7470     1.6630 hc         1 1D6       0.042200
     48 H14         12.3470    -5.0540     1.1030 hc         1 1D6       0.042200
     49 H16         12.5330    -1.5080     2.0170 ha         1 1D6       0.136500
     50 H17         10.5560    -0.1360     2.5470 ha         1 1D6       0.136500
     51 H18          6.4440    -1.4580     0.9680 h1         1 1D6       0.088700
     52 H19          5.3000    -3.4790     1.2640 ha         1 1D6       0.148000
     53 H20          3.3810    -6.0470     4.3560 h2         1 1D6       0.069700
     54 H21          7.3050    -1.7050     4.5910 ha         1 1D6       0.167000
     55 H8           4.4170    -7.4770     3.9600 h2         1 1D6       0.069700
@<TRIPOS>BOND
     1    23    21 1   
     2    21    22 1   
     3    21    20 1   
     4    20    19 1   
     5    18    19 ar  
     6    18    17 ar  
     7    19    24 ar  
     8    17    16 ar  
     9    24    25 ar  
    10    16    25 ar  
    11    16    15 1   
    12    14    13 2   
    13    15    13 1   
    14    15    26 1   
    15    13    11 1   
    16    26    10 1   
    17    26    27 1   
    18    11    10 2   
    19    11    12 1   
    20    10     8 1   
    21     9     8 2   
    22    36    27 ar  
    23    36    34 ar  
    24    27    28 ar  
    25     8     7 1   
    26    35    34 1   
    27    34    33 ar  
    28     3     7 ar  
    29     3     2 ar  
    30     7     6 ar  
    31    28    29 ar  
    32     1     2 1   
    33    33    29 ar  
    34    33    32 1   
    35     2     4 ar  
    36    29    30 1   
    37     6     5 ar  
    38     4     5 ar  
    39    32    31 1   
    40    30    31 1   
    41     1    37 1   
    42     1    38 1   
    43     1    39 1   
    44     3    40 1   
    45     4    41 1   
    46     5    42 1   
    47     6    43 1   
    48    12    44 1   
    49    17    45 1   
    50    18    46 1   
    51    20    47 1   
    52    20    48 1   
    53    24    49 1   
    54    25    50 1   
    55    26    51 1   
    56    28    52 1   
    57    31    53 1   
    58    36    54 1   
    59    31    55 1   
@<TRIPOS>SUBSTRUCTURE
     1 1D6         1 TEMP              0 ****  ****    0 ROOT
