@<TRIPOS>MOLECULE
1D6
   55    59     1     0     0
SMALL
bcc


@<TRIPOS>ATOM
      1 CAA          0.0380     0.4920    -0.0090 c3         1 1D6      -0.050800
      2 CBA          1.5050     0.3060     0.0620 ca         1 1D6      -0.098300
      3 CAO          2.1230     0.0370     1.2860 ca         1 1D6      -0.075000
      4 CAI          2.2900     0.4140    -1.0920 ca         1 1D6      -0.106000
      5 CAH          3.6720     0.2520    -1.0200 ca         1 1D6      -0.145000
      6 CAJ          4.2860    -0.0210     0.2020 ca         1 1D6      -0.072000
      7 CBD          3.5130    -0.1300     1.3630 ca         1 1D6      -0.156600
      8 CAW          4.1210    -0.3880     2.6880 c          1 1D6       0.620900
      9 OAC          3.4840    -0.1720     3.7320 o          1 1D6      -0.544100
     10 CAZ          5.4920    -0.8910     2.7540 ce         1 1D6      -0.259400
     11 CAY          6.1380    -1.8580     2.0560 cf         1 1D6       0.067900
     12 OAF          5.6890    -2.5870     1.0080 oh         1 1D6      -0.462100
     13 CAX          7.5200    -2.0940     2.6500 c          1 1D6       0.667700
     14 OAD          8.3060    -2.9330     2.1850 o          1 1D6      -0.612500
     15 NBJ          7.6680    -1.2000     3.7050 n          1 1D6      -0.340000
     16 CBF          8.6540    -1.2560     4.7220 ca         1 1D6       0.004600
     17 CAM          8.5230    -0.4690     5.8850 ca         1 1D6      -0.159000
     18 CAK          9.5040    -0.5070     6.8700 ca         1 1D6      -0.121500
     19 CBB         10.6360    -1.3190     6.7390 ca         1 1D6      -0.014300
     20 CAS         11.6930    -1.3300     7.7740 c3         1 1D6      -0.180100
     21 CAV         12.1450    -2.7560     8.1800 c          1 1D6       0.919600
     22 OAE         12.7220    -3.4670     7.3100 o          1 1D6      -0.836300
     23 OAB         11.9420    -3.1080     9.3740 o          1 1D6      -0.836300
     24 CAL         10.7550    -2.1140     5.5880 ca         1 1D6      -0.121500
     25 CAN          9.7880    -2.0880     4.5910 ca         1 1D6      -0.159000
     26 CBI          6.4380    -0.3970     3.8650 c3         1 1D6       0.199200
     27 CBE          6.6380     1.0950     3.7660 ca         1 1D6      -0.078300
     28 CAQ          7.6460     1.6450     2.9460 ca         1 1D6      -0.078000
     29 CBG          7.7290     3.0210     2.9220 ca         1 1D6       0.057100
     30 OAT          8.6190     3.8170     2.2050 os         1 1D6      -0.330900
     31 CAR          8.3140     5.1890     2.5390 c3         1 1D6       0.320200
     32 OAU          7.1880     5.1870     3.4480 os         1 1D6      -0.325900
     33 CBH          6.8600     3.8540     3.6730 ca         1 1D6       0.060100
     34 CBC          5.8700     3.3140     4.4740 ca         1 1D6       0.027400
     35 ClA          4.8120     4.2690     5.3830 cl         1 1D6      -0.065400
     36 CAP          5.7770     1.9080     4.5070 ca         1 1D6      -0.114000
     37 H1          -0.3570     0.1840    -1.0080 hc         1 1D6       0.042700
     38 H2          -0.4800    -0.1110     0.7780 hc         1 1D6       0.042700
     39 H3          -0.2190     1.5700     0.1530 hc         1 1D6       0.042700
     40 H4           1.5220    -0.0430     2.2070 ha         1 1D6       0.152000
     41 H5           1.8120     0.6260    -2.0600 ha         1 1D6       0.128000
     42 H6           4.2840     0.3380    -1.9300 ha         1 1D6       0.133000
     43 H7           5.3770    -0.1640     0.2510 ha         1 1D6       0.145000
     44 H10          6.3830    -3.2440     0.8040 ho         1 1D6       0.452000
     45 H11          7.6570     0.1940     6.0270 ha         1 1D6       0.133500
     46 H12          9.3790     0.1090     7.7740 ha         1 1D6       0.162000
     47 H13         11.3500    -0.7890     8.6920 hc         1 1D6       0.040700
     48 H14         12.5980    -0.8030     7.3710 hc         1 1D6       0.040700
     49 H16         11.6300    -2.7920     5.5140 ha         1 1D6       0.162000
     50 H17          9.9160    -2.7300     3.7060 ha         1 1D6       0.133500
     51 H18          5.9640    -0.6420     4.8650 h1         1 1D6       0.103700
     52 H19          8.3390     1.0190     2.3680 ha         1 1D6       0.172000
     53 H20          8.0140     5.7260     1.6050 h2         1 1D6       0.070200
     54 H21          4.9880     1.4410     5.1230 ha         1 1D6       0.169000
     55 H8           9.1950     5.6360     3.0630 h2         1 1D6       0.070200
@<TRIPOS>BOND
     1     1     2 1   
     2     1    37 1   
     3     1    38 1   
     4     1    39 1   
     5     2     3 ar  
     6     2     4 ar  
     7     3     7 ar  
     8     3    40 1   
     9     4     5 ar  
    10     4    41 1   
    11     5     6 ar  
    12     5    42 1   
    13     6     7 ar  
    14     6    43 1   
    15     7     8 1   
    16     8     9 2   
    17     8    10 1   
    18    10    11 2   
    19    10    26 1   
    20    11    12 1   
    21    11    13 1   
    22    12    44 1   
    23    13    14 2   
    24    13    15 1   
    25    15    16 1   
    26    15    26 1   
    27    16    17 ar  
    28    16    25 ar  
    29    17    18 ar  
    30    17    45 1   
    31    18    19 ar  
    32    18    46 1   
    33    19    20 1   
    34    19    24 ar  
    35    20    21 1   
    36    20    47 1   
    37    20    48 1   
    38    21    22 1   
    39    21    23 1   
    40    24    25 ar  
    41    24    49 1   
    42    25    50 1   
    43    26    27 1   
    44    26    51 1   
    45    27    28 ar  
    46    27    36 ar  
    47    28    29 ar  
    48    28    52 1   
    49    29    30 1   
    50    29    33 ar  
    51    30    31 1   
    52    31    32 1   
    53    31    53 1   
    54    31    55 1   
    55    32    33 1   
    56    33    34 ar  
    57    34    35 1   
    58    34    36 ar  
    59    36    54 1   
@<TRIPOS>SUBSTRUCTURE
     1 1D6         1 TEMP              0 ****  ****    0 ROOT
