@<TRIPOS>MOLECULE
1D6
   55    59     1     0     0
SMALL
bcc


@<TRIPOS>ATOM
      1 CAA          0.0000     0.0000     0.0000 c3         1 1D6       0.066200
      2 CBA          1.5070     0.0000     0.0000 ca         1 1D6      -0.110300
      3 CAO          2.1940     0.0000     1.1970 ca         1 1D6      -0.040000
      4 CAI          2.1970    -0.0050    -1.1980 ca         1 1D6      -0.076000
      5 CAH          3.5820    -0.0050    -1.2070 ca         1 1D6      -0.109000
      6 CAJ          4.2810     0.0000    -0.0190 ca         1 1D6      -0.071000
      7 CBD          3.5900    -0.0000     1.1960 ca         1 1D6      -0.178600
      8 CAW          4.3340     0.0010     2.4730 c          1 1D6       0.679900
      9 OAC          3.7310     0.0680     3.5280 o          1 1D6      -0.543100
     10 CAZ          5.7980    -0.0800     2.4700 ce         1 1D6      -0.267400
     11 CAY          6.6610     0.8790     2.8780 cf         1 1D6       0.080900
     12 OAF          6.3110     2.0920     3.3660 oh         1 1D6      -0.456100
     13 CAX          8.0450     0.3920     2.7080 c          1 1D6       0.573700
     14 OAD          9.0460     1.0230     2.9860 o          1 1D6      -0.653500
     15 NBJ          8.0340    -0.8540     2.2000 n          1 1D6       0.060000
     16 CBF          9.1570    -1.6320     1.9050 ca         1 1D6      -0.126400
     17 CAM          9.0010    -2.9070     1.3770 ca         1 1D6      -0.143000
     18 CAK         10.1130    -3.6710     1.0810 ca         1 1D6      -0.075500
     19 CBB         11.3800    -3.1680     1.3120 ca         1 1D6      -0.000300
     20 CAS         12.5910    -4.0050     0.9880 c3         1 1D6      -0.096100
     21 CAV         13.0190    -3.7410    -0.4320 c          1 1D6       0.981600
     22 OAE         14.0840    -4.3800    -0.9430 o          1 1D6      -0.894300
     23 OAB         12.4030    -2.9540    -1.1130 o          1 1D6      -0.894300
     24 CAL         11.5390    -1.8990     1.8380 ca         1 1D6      -0.075500
     25 CAN         10.4310    -1.1300     2.1350 ca         1 1D6      -0.143000
     26 CBI          6.6330    -1.2540     2.0150 c3         1 1D6       0.126200
     27 CBE          6.3290    -2.4720     2.8480 ca         1 1D6      -0.095300
     28 CAQ          5.6280    -3.5280     2.2950 ca         1 1D6      -0.074000
     29 CBG          5.3460    -4.6490     3.0590 ca         1 1D6       0.065100
     30 OAT          4.6840    -5.8050     2.7600 os         1 1D6      -0.312900
     31 CAR          4.3520    -6.3980     4.0300 c3         1 1D6       0.430200
     32 OAU          5.3740    -5.9030     4.9150 os         1 1D6      -0.305900
     33 CBH          5.7710    -4.7090     4.3840 ca         1 1D6       0.061100
     34 CBC          6.4730    -3.6480     4.9320 ca         1 1D6      -0.016600
     35 ClA          7.0040    -3.7180     6.5830 cl         1 1D6      -0.010400
     36 CAP          6.7560    -2.5340     4.1620 ca         1 1D6      -0.067000
     37 H1          -0.3610     0.5290    -0.8740 hc         1 1D6       0.007033
     38 H2          -0.3610    -1.0210    -0.0220 hc         1 1D6       0.007033
     39 H3          -0.3610     0.4920     0.8950 hc         1 1D6       0.007033
     40 H4           1.6520    -0.0000     2.1350 ha         1 1D6       0.124000
     41 H5           1.6520    -0.0090    -2.1350 ha         1 1D6       0.103000
     42 H6           4.1170    -0.0070    -2.1490 ha         1 1D6       0.110000
     43 H7           5.3640     0.0000    -0.0270 ha         1 1D6       0.117000
     44 H10          6.5510     2.7610     2.7470 ho         1 1D6       0.411000
     45 H11          8.0080    -3.3010     1.1950 ha         1 1D6       0.123500
     46 H12          9.9930    -4.6650     0.6680 ha         1 1D6       0.108000
     47 H13         13.3990    -3.7470     1.6630 hc         1 1D6       0.014700
     48 H14         12.3470    -5.0540     1.1030 hc         1 1D6       0.014700
     49 H16         12.5330    -1.5080     2.0170 ha         1 1D6       0.108000
     50 H17         10.5560    -0.1360     2.5470 ha         1 1D6       0.123500
     51 H18          6.4440    -1.4580     0.9680 h1         1 1D6       0.056700
     52 H19          5.3000    -3.4790     1.2640 ha         1 1D6       0.118000
     53 H20          3.3810    -6.0470     4.3560 h2         1 1D6       0.012700
     54 H21          7.3050    -1.7050     4.5910 ha         1 1D6       0.133000
     55 H8           4.4170    -7.4770     3.9600 h2         1 1D6       0.012700
@<TRIPOS>BOND
     1     1     2 1   
     2     1    37 1   
     3     1    38 1   
     4     1    39 1   
     5     2     3 ar  
     6     2     4 ar  
     7     3     7 ar  
     8     3    40 1   
     9     4     5 ar  
    10     4    41 1   
    11     5     6 ar  
    12     5    42 1   
    13     6     7 ar  
    14     6    43 1   
    15     7     8 1   
    16     8     9 2   
    17     8    10 1   
    18    10    11 2   
    19    10    26 1   
    20    11    12 1   
    21    11    13 1   
    22    12    44 1   
    23    13    14 2   
    24    13    15 1   
    25    15    16 1   
    26    15    26 1   
    27    16    17 ar  
    28    16    25 ar  
    29    17    18 ar  
    30    17    45 1   
    31    18    19 ar  
    32    18    46 1   
    33    19    20 1   
    34    19    24 ar  
    35    20    21 1   
    36    20    47 1   
    37    20    48 1   
    38    21    22 1   
    39    21    23 1   
    40    24    25 ar  
    41    24    49 1   
    42    25    50 1   
    43    26    27 1   
    44    26    51 1   
    45    27    28 ar  
    46    27    36 ar  
    47    28    29 ar  
    48    28    52 1   
    49    29    30 1   
    50    29    33 ar  
    51    30    31 1   
    52    31    32 1   
    53    31    53 1   
    54    31    55 1   
    55    32    33 1   
    56    33    34 ar  
    57    34    35 1   
    58    34    36 ar  
    59    36    54 1   
@<TRIPOS>SUBSTRUCTURE
     1 1D6         1 TEMP              0 ****  ****    0 ROOT
