@<TRIPOS>MOLECULE
1D8
   52    56     1     0     0
SMALL
bcc


@<TRIPOS>ATOM
      1 FAF          0.0000     0.0000     0.0000 f          1 1D8      -0.208967
      2 CBL          1.3990     0.0000     0.0000 c3         1 1D8       0.641200
      3 FAG          1.8660     0.0000     1.3190 f          1 1D8      -0.208967
      4 FAH          1.8660    -1.1420    -0.6600 f          1 1D8      -0.208967
      5 CBH          1.9010     1.2310    -0.7110 ca         1 1D8      -0.230300
      6 CAR          3.2570     1.4440    -0.8420 ca         1 1D8       0.019000
      7 CAO          1.0000     2.1400    -1.2360 ca         1 1D8      -0.026000
      8 CAK          1.4520     3.2720    -1.8910 ca         1 1D8      -0.120000
      9 CAM          2.8060     3.5010    -2.0240 ca         1 1D8      -0.031000
     10 CBD          3.7210     2.5850    -1.5010 ca         1 1D8      -0.180600
     11 CAX          5.1730     2.8200    -1.6460 c          1 1D8       0.682900
     12 OAB          5.9680     2.0550    -1.1320 o          1 1D8      -0.535100
     13 CBA          5.6560     3.9760    -2.4070 ce         1 1D8      -0.295400
     14 CAY          6.3330     5.0410    -1.9170 cf         1 1D8       0.094900
     15 OAE          6.6830     5.2190    -0.6210 oh         1 1D8      -0.449100
     16 CAZ          6.6300     5.9780    -3.0200 c          1 1D8       0.562700
     17 OAC          7.2280     7.0280    -2.9000 o          1 1D8      -0.621500
     18 NBK          6.1410     5.4950    -4.1760 n          1 1D8       0.053000
     19 CBF          6.2320     6.1090    -5.4290 ca         1 1D8      -0.124400
     20 CAQ          6.8750     7.3310    -5.5560 ca         1 1D8      -0.106000
     21 CBC          6.9650     7.9400    -6.8070 ca         1 1D8      -0.076600
     22 CAW          7.6480     9.2420    -6.9510 c          1 1D8       0.969200
     23 OAD          7.7340     9.8270    -8.1620 o          1 1D8      -0.877300
     24 OAA          8.1340     9.7840    -5.9790 o          1 1D8      -0.877300
     25 CAL          6.4060     7.3140    -7.9240 ca         1 1D8      -0.072000
     26 CAJ          5.7690     6.0990    -7.7870 ca         1 1D8      -0.119000
     27 CAN          5.6850     5.4920    -6.5470 ca         1 1D8      -0.178000
     28 CBJ          5.4990     4.2050    -3.8920 c3         1 1D8       0.133200
     29 CBE          6.1770     3.1070    -4.6690 ca         1 1D8      -0.096300
     30 CAS          5.4180     2.1680    -5.3430 ca         1 1D8      -0.080000
     31 CBG          6.0380     1.1570    -6.0590 ca         1 1D8       0.062100
     32 OAU          5.5290     0.1270    -6.7950 os         1 1D8      -0.315900
     33 CAT          6.6130    -0.8090    -6.9470 c3         1 1D8       0.430200
     34 OAV          7.7910     0.0150    -6.8580 os         1 1D8      -0.304900
     35 CBI          7.4280     1.0880    -6.0970 ca         1 1D8       0.061100
     36 CBB          8.1840     2.0320    -5.4200 ca         1 1D8      -0.015600
     37 ClA          9.9180     1.9510    -5.4640 cl         1 1D8      -0.003400
     38 CAP          7.5570     3.0430    -4.7110 ca         1 1D8      -0.061000
     39 H1           3.9590     0.6920    -0.5010 ha         1 1D8       0.133000
     40 H2          -0.0640     1.9650    -1.1350 ha         1 1D8       0.118000
     41 H3           0.7420     3.9820    -2.2970 ha         1 1D8       0.115000
     42 H4           3.1580     4.4280    -2.4600 ha         1 1D8       0.121000
     43 H5           6.3940     6.0680    -0.3310 ho         1 1D8       0.416000
     44 H6           7.2240     7.8530    -4.6730 ha         1 1D8       0.176000
     45 H8           6.4710     7.7840    -8.8980 ha         1 1D8       0.132000
     46 H9           5.3380     5.6140    -8.6550 ha         1 1D8       0.087000
     47 H10          5.1830     4.5380    -6.4460 ha         1 1D8       0.096000
     48 H11          4.4480     4.2520    -4.1480 h1         1 1D8       0.046700
     49 H12          4.3360     2.2240    -5.3120 ha         1 1D8       0.113000
     50 H13          6.6000    -1.5220    -6.1310 h2         1 1D8       0.012200
     51 H14          6.5630    -1.2750    -7.9240 h2         1 1D8       0.012200
     52 H15          8.1490     3.7770    -4.1790 ha         1 1D8       0.136000
@<TRIPOS>BOND
     1     1     2 1   
     2     2     3 1   
     3     2     4 1   
     4     2     5 1   
     5     5     6 ar  
     6     5     7 ar  
     7     6    10 ar  
     8     6    39 1   
     9     7     8 ar  
    10     7    40 1   
    11     8     9 ar  
    12     8    41 1   
    13     9    10 ar  
    14     9    42 1   
    15    10    11 1   
    16    11    12 2   
    17    11    13 1   
    18    13    14 2   
    19    13    28 1   
    20    14    15 1   
    21    14    16 1   
    22    15    43 1   
    23    16    17 2   
    24    16    18 1   
    25    18    19 1   
    26    18    28 1   
    27    19    20 ar  
    28    19    27 ar  
    29    20    21 ar  
    30    20    44 1   
    31    21    22 1   
    32    21    25 ar  
    33    22    23 1   
    34    22    24 1   
    35    25    26 ar  
    36    25    45 1   
    37    26    27 ar  
    38    26    46 1   
    39    27    47 1   
    40    28    29 1   
    41    28    48 1   
    42    29    30 ar  
    43    29    38 ar  
    44    30    31 ar  
    45    30    49 1   
    46    31    32 1   
    47    31    35 ar  
    48    32    33 1   
    49    33    34 1   
    50    33    50 1   
    51    33    51 1   
    52    34    35 1   
    53    35    36 ar  
    54    36    37 1   
    55    36    38 ar  
    56    38    52 1   
@<TRIPOS>SUBSTRUCTURE
     1 1D8         1 TEMP              0 ****  ****    0 ROOT
