@<TRIPOS>MOLECULE
1D8
   52    56     1     0     0
SMALL
bcc


@<TRIPOS>ATOM
      1 FAF         -0.4990    -0.2080    -0.5740 f          1 1D8      -0.239967
      2 CBL          0.8610    -0.0320    -0.4800 c3         1 1D8       0.689200
      3 FAG          1.0520     0.3440     0.8290 f          1 1D8      -0.239967
      4 FAH          1.0970     1.1190    -1.1920 f          1 1D8      -0.239967
      5 CBH          1.6870    -1.2350    -0.9120 ca         1 1D8      -0.189300
      6 CAR          2.9400    -1.0450    -1.4930 ca         1 1D8      -0.030000
      7 CAO          1.1830    -2.5230    -0.7080 ca         1 1D8      -0.062000
      8 CAK          1.9460    -3.6260    -1.0860 ca         1 1D8      -0.150000
      9 CAM          3.2060    -3.4460    -1.6590 ca         1 1D8      -0.038000
     10 CBD          3.7090    -2.1570    -1.8670 ca         1 1D8      -0.162600
     11 CAX          5.0280    -1.9260    -2.5020 c          1 1D8       0.622900
     12 OAB          5.3130    -0.8150    -2.9770 o          1 1D8      -0.539100
     13 CBA          5.9760    -3.0350    -2.5650 ce         1 1D8      -0.269400
     14 CAY          6.3690    -3.9300    -1.6240 cf         1 1D8       0.068900
     15 OAE          5.8990    -4.0910    -0.3660 oh         1 1D8      -0.468100
     16 CAZ          7.5140    -4.7820    -2.1600 c          1 1D8       0.672700
     17 OAC          8.0760    -5.6530    -1.4840 o          1 1D8      -0.597500
     18 NBK          7.7780    -4.3240    -3.4430 n          1 1D8      -0.357000
     19 CBF          8.6750    -4.9100    -4.3710 ca         1 1D8      -0.002400
     20 CAQ          8.6840    -6.3030    -4.5830 ca         1 1D8      -0.104000
     21 CBC          9.5590    -6.8660    -5.5130 ca         1 1D8      -0.115600
     22 CAW          9.5350    -8.3710    -5.7660 c          1 1D8       0.910200
     23 OAD          8.6310    -9.0450    -5.2000 o          1 1D8      -0.822300
     24 OAA         10.4160    -8.8470    -6.5350 o          1 1D8      -0.822300
     25 CAL         10.4380    -6.0450    -6.2230 ca         1 1D8      -0.099000
     26 CAJ         10.4410    -4.6680    -6.0090 ca         1 1D8      -0.152000
     27 CAN          9.5690    -4.0900    -5.0900 ca         1 1D8      -0.153000
     28 CBJ          6.8380    -3.2550    -3.8240 c3         1 1D8       0.212200
     29 CBE          5.9710    -3.5210    -5.0280 ca         1 1D8      -0.088300
     30 CAS          5.6510    -4.8340    -5.4340 ca         1 1D8      -0.078000
     31 CBG          4.8350    -4.9460    -6.5420 ca         1 1D8       0.066100
     32 OAU          4.3580    -6.1070    -7.1430 os         1 1D8      -0.314900
     33 CAT          3.5880    -5.6970    -8.2940 c3         1 1D8       0.319200
     34 OAV          3.5670    -4.2490    -8.3210 os         1 1D8      -0.329900
     35 CBI          4.3470    -3.8190    -7.2530 ca         1 1D8       0.058100
     36 CBB          4.6670    -2.5340    -6.8560 ca         1 1D8       0.024400
     37 ClA          4.1090    -1.1610    -7.6730 cl         1 1D8      -0.072400
     38 CAP          5.4940    -2.4060    -5.7220 ca         1 1D8      -0.123000
     39 H1           3.3300    -0.0280    -1.6720 ha         1 1D8       0.170000
     40 H2           0.1880    -2.6580    -0.2570 ha         1 1D8       0.147000
     41 H3           1.5560    -4.6430    -0.9300 ha         1 1D8       0.146000
     42 H4           3.8120    -4.3230    -1.9410 ha         1 1D8       0.158000
     43 H5           6.4480    -4.7820     0.0530 ho         1 1D8       0.455000
     44 H6           8.0180    -6.9810    -4.0210 ha         1 1D8       0.165000
     45 H8          11.1230    -6.5160    -6.9480 ha         1 1D8       0.158000
     46 H9          11.1360    -4.0240    -6.5670 ha         1 1D8       0.113000
     47 H10          9.5800    -3.0020    -4.9360 ha         1 1D8       0.113000
     48 H11          7.4420    -2.3160    -4.0150 h1         1 1D8       0.095700
     49 H12          6.0490    -5.7270    -4.9280 ha         1 1D8       0.187000
     50 H13          2.5400    -6.0630    -8.1700 h2         1 1D8       0.072200
     51 H14          4.0980    -6.0640    -9.2180 h2         1 1D8       0.072200
     52 H15          5.7580    -1.3940    -5.3690 ha         1 1D8       0.164000
@<TRIPOS>BOND
     1     1     2 1   
     2     2     3 1   
     3     2     4 1   
     4     2     5 1   
     5     5     6 ar  
     6     5     7 ar  
     7     6    10 ar  
     8     6    39 1   
     9     7     8 ar  
    10     7    40 1   
    11     8     9 ar  
    12     8    41 1   
    13     9    10 ar  
    14     9    42 1   
    15    10    11 1   
    16    11    12 2   
    17    11    13 1   
    18    13    14 2   
    19    13    28 1   
    20    14    15 1   
    21    14    16 1   
    22    15    43 1   
    23    16    17 2   
    24    16    18 1   
    25    18    19 1   
    26    18    28 1   
    27    19    20 ar  
    28    19    27 ar  
    29    20    21 ar  
    30    20    44 1   
    31    21    22 1   
    32    21    25 ar  
    33    22    23 1   
    34    22    24 1   
    35    25    26 ar  
    36    25    45 1   
    37    26    27 ar  
    38    26    46 1   
    39    27    47 1   
    40    28    29 1   
    41    28    48 1   
    42    29    30 ar  
    43    29    38 ar  
    44    30    31 ar  
    45    30    49 1   
    46    31    32 1   
    47    31    35 ar  
    48    32    33 1   
    49    33    34 1   
    50    33    50 1   
    51    33    51 1   
    52    34    35 1   
    53    35    36 ar  
    54    36    37 1   
    55    36    38 ar  
    56    38    52 1   
@<TRIPOS>SUBSTRUCTURE
     1 1D8         1 TEMP              0 ****  ****    0 ROOT
