@<TRIPOS>MOLECULE
molecule
   52    56     1     0     0
SMALL
bcc


@<TRIPOS>ATOM
      1 FAF          0.0000     0.0000     0.0000 f          1 1D8      -0.223967
      2 CBL          1.3990     0.0000     0.0000 c3         1 1D8       0.675200
      3 FAG          1.8660     0.0000     1.3190 f          1 1D8      -0.223967
      4 FAH          1.8660    -1.1420    -0.6600 f          1 1D8      -0.223967
      5 CBH          1.9010     1.2310    -0.7110 ca         1 1D8      -0.197300
      6 CAR          3.2570     1.4440    -0.8420 ca         1 1D8      -0.025000
      7 CAO          1.0000     2.1400    -1.2360 ca         1 1D8      -0.063000
      8 CAK          1.4520     3.2720    -1.8910 ca         1 1D8      -0.146000
      9 CAM          2.8060     3.5010    -2.0240 ca         1 1D8      -0.063000
     10 CBD          3.7210     2.5850    -1.5010 ca         1 1D8      -0.169600
     11 CAX          5.1730     2.8200    -1.6460 c          1 1D8       0.615900
     12 OAB          5.9680     2.0550    -1.1320 o          1 1D8      -0.495100
     13 CBA          5.6560     3.9760    -2.4070 ce         1 1D8      -0.256400
     14 CAY          6.3330     5.0410    -1.9170 cf         1 1D8       0.074900
     15 OAE          6.6830     5.2190    -0.6210 oh         1 1D8      -0.469100
     16 CAZ          6.6300     5.9780    -3.0200 c          1 1D8       0.655700
     17 OAC          7.2280     7.0280    -2.9000 o          1 1D8      -0.575500
     18 NBK          6.1410     5.4950    -4.1760 n          1 1D8      -0.352000
     19 CBF          6.2320     6.1090    -5.4290 ca         1 1D8       0.023600
     20 CAQ          6.8750     7.3310    -5.5560 ca         1 1D8      -0.124000
     21 CBC          6.9650     7.9400    -6.8070 ca         1 1D8      -0.079600
     22 CAW          7.6480     9.2420    -6.9510 c          1 1D8       0.881200
     23 OAD          7.7340     9.8270    -8.1620 o          1 1D8      -0.828800
     24 OAA          8.1340     9.7840    -5.9790 o          1 1D8      -0.828800
     25 CAL          6.4060     7.3140    -7.9240 ca         1 1D8      -0.105000
     26 CAJ          5.7690     6.0990    -7.7870 ca         1 1D8      -0.141000
     27 CAN          5.6850     5.4920    -6.5470 ca         1 1D8      -0.189000
     28 CBJ          5.4990     4.2050    -3.8920 c3         1 1D8       0.209200
     29 CBE          6.1770     3.1070    -4.6690 ca         1 1D8      -0.087300
     30 CAS          5.4180     2.1680    -5.3430 ca         1 1D8      -0.105000
     31 CBG          6.0380     1.1570    -6.0590 ca         1 1D8       0.053100
     32 OAU          5.5290     0.1270    -6.7950 os         1 1D8      -0.326900
     33 CAT          6.6130    -0.8090    -6.9470 c3         1 1D8       0.330200
     34 OAV          7.7910     0.0150    -6.8580 os         1 1D8      -0.314900
     35 CBI          7.4280     1.0880    -6.0970 ca         1 1D8       0.058100
     36 CBB          8.1840     2.0320    -5.4200 ca         1 1D8       0.048400
     37 ClA          9.9180     1.9510    -5.4640 cl         1 1D8      -0.085400
     38 CAP          7.5570     3.0430    -4.7110 ca         1 1D8      -0.073000
     39 H1           3.9590     0.6920    -0.5010 ha         1 1D8       0.166000
     40 H2          -0.0640     1.9650    -1.1350 ha         1 1D8       0.149000
     41 H3           0.7420     3.9820    -2.2970 ha         1 1D8       0.145000
     42 H4           3.1580     4.4280    -2.4600 ha         1 1D8       0.151000
     43 H5           6.3940     6.0680    -0.3310 ho         1 1D8       0.438000
     44 H6           7.2240     7.8530    -4.6730 ha         1 1D8       0.191000
     45 H8           6.4710     7.7840    -8.8980 ha         1 1D8       0.158000
     46 H9           5.3380     5.6140    -8.6550 ha         1 1D8       0.112000
     47 H10          5.1830     4.5380    -6.4460 ha         1 1D8       0.107000
     48 H11          4.4480     4.2520    -4.1480 h1         1 1D8       0.078700
     49 H12          4.3360     2.2240    -5.3120 ha         1 1D8       0.143000
     50 H13          6.6000    -1.5220    -6.1310 h2         1 1D8       0.069200
     51 H14          6.5630    -1.2750    -7.9240 h2         1 1D8       0.069200
     52 H15          8.1490     3.7770    -4.1790 ha         1 1D8       0.171000
@<TRIPOS>BOND
     1    26    25 ar
     2    26    27 ar
     3    25    21 ar
     4    27    19 ar
     5    24    22 1
     6    21    22 1
     7    21    20 ar
     8    22    23 1
     9    19    20 ar
    10    19    18 1
    11    18    16 1
    12    18    28 1
    13    17    16 2
    14    16    14 1
    15    28    13 1
    16    28    29 1
    17    14    13 2
    18    14    15 1
    19    13    11 1
    20    38    29 ar
    21    38    36 ar
    22    29    30 ar
    23    12    11 2
    24    11    10 1
    25    37    36 1
    26    36    35 ar
    27    10     6 ar
    28    10     9 ar
    29    30    31 ar
    30     6     5 ar
    31     3     2 1
    32     4     2 1
    33    35    31 ar
    34    35    34 1
    35    31    32 1
    36     9     8 ar
    37     5     2 1
    38     5     7 ar
    39     2     1 1
    40    34    33 1
    41     8     7 ar
    42    32    33 1
    43     6    39 1
    44     7    40 1
    45     8    41 1
    46     9    42 1
    47    15    43 1
    48    20    44 1
    49    25    45 1
    50    26    46 1
    51    27    47 1
    52    28    48 1
    53    30    49 1
    54    33    50 1
    55    33    51 1
    56    38    52 1
@<TRIPOS>SUBSTRUCTURE
     1 1D8         1 TEMP              0 ****  ****    0 ROOT
