@<TRIPOS>MOLECULE
1D9
   52    55     1     0     0
SMALL
bcc


@<TRIPOS>ATOM
      1 FAI          0.0000     0.0000     0.0000 f          1 1D9      -0.210967
      2 CBL          1.3990     0.0000     0.0000 c3         1 1D9       0.640200
      3 FAJ          1.8640     0.0000     1.3190 f          1 1D9      -0.210967
      4 FAK          1.8650    -1.1420    -0.6590 f          1 1D9      -0.210967
      5 CBH          1.9010     1.2310    -0.7100 ca         1 1D9      -0.216300
      6 CAW          3.2560     1.5030    -0.7460 ca         1 1D9      -0.032000
      7 CAT          1.0080     2.0840    -1.3300 ca         1 1D9      -0.043000
      8 CAN          1.4690     3.2120    -1.9810 ca         1 1D9      -0.098000
      9 CAQ          2.8240     3.4880    -2.0130 ca         1 1D9      -0.027000
     10 CBE          3.7170     2.6330    -1.3970 ca         1 1D9      -0.111300
     11 CBI          5.1940     2.9290    -1.4350 c3         1 1D9       0.130200
     12 NBJ          5.4280     4.3590    -1.1960 n          1 1D9       0.054000
     13 CBF          5.0760     5.0680    -0.0450 ca         1 1D9      -0.126400
     14 CAU          5.3570     6.4230     0.0490 ca         1 1D9      -0.106000
     15 CBC          5.0040     7.1260     1.2010 ca         1 1D9      -0.076600
     16 CAX          5.3010     8.5690     1.3080 c          1 1D9       0.969200
     17 OAD          5.8520     9.1460     0.3920 o          1 1D9      -0.876800
     18 OAA          4.9590     9.2460     2.4210 o          1 1D9      -0.876800
     19 CAO          4.3700     6.4600     2.2520 ca         1 1D9      -0.073000
     20 CAL          4.0940     5.1130     2.1490 ca         1 1D9      -0.118000
     21 CAR          4.4390     4.4170     1.0060 ca         1 1D9      -0.178000
     22 CBA          6.0400     4.8650    -2.2820 c          1 1D9       0.562700
     23 OAC          6.3770     6.0250    -2.4140 o          1 1D9      -0.622500
     24 CAZ          6.2430     3.8030    -3.2880 ce         1 1D9       0.089900
     25 OAE          6.8290     3.9690    -4.4970 oh         1 1D9      -0.450100
     26 CBB          5.7470     2.6380    -2.8110 cf         1 1D9      -0.287400
     27 CAY          5.7460     1.3410    -3.4950 c          1 1D9       0.680900
     28 OAB          5.0860     1.1860    -4.5050 o          1 1D9      -0.535100
     29 CBD          6.5510     0.2220    -2.9590 ca         1 1D9      -0.152600
     30 CAV          6.4950    -1.0350    -3.5650 ca         1 1D9       0.012000
     31 CBG          7.2470    -2.0740    -3.0590 ca         1 1D9      -0.224300
     32 CBK          7.1880    -3.4320    -3.7120 c3         1 1D9       0.641200
     33 FAG          5.9260    -3.6190    -4.2860 f          1 1D9      -0.208300
     34 FAH          8.1690    -3.5140    -4.7060 f          1 1D9      -0.208300
     35 FAF          7.4150    -4.4220    -2.7500 f          1 1D9      -0.208300
     36 CAS          8.0560    -1.8740    -1.9540 ca         1 1D9      -0.027000
     37 CAM          8.1150    -0.6320    -1.3480 ca         1 1D9      -0.142000
     38 CAP          7.3730     0.4180    -1.8470 ca         1 1D9      -0.046000
     39 H1           3.9570     0.8330    -0.2630 ha         1 1D9       0.113000
     40 H2          -0.0530     1.8680    -1.3050 ha         1 1D9       0.116000
     41 H3           0.7690     3.8820    -2.4660 ha         1 1D9       0.113000
     42 H4           3.1840     4.3730    -2.5230 ha         1 1D9       0.124000
     43 H5           5.7170     2.3390    -0.6920 h1         1 1D9       0.051700
     44 H6           5.9210     6.9150    -0.7340 ha         1 1D9       0.176000
     45 H8           4.0960     7.0020     3.1490 ha         1 1D9       0.132000
     46 H9           3.6000     4.5990     2.9650 ha         1 1D9       0.088000
     47 H10          4.2190     3.3580     0.9310 ha         1 1D9       0.095000
     48 H11          7.6640     4.3930    -4.3850 ho         1 1D9       0.416000
     49 H12          5.8030    -1.2130    -4.3790 ha         1 1D9       0.139000
     50 H13          8.6460    -2.6940    -1.5630 ha         1 1D9       0.114000
     51 H14          8.7440    -0.4840    -0.4780 ha         1 1D9       0.116000
     52 H15          8.0150     1.2250    -1.5160 ha         1 1D9       0.131000
@<TRIPOS>BOND
     1     1     2 1   
     2     2     3 1   
     3     2     4 1   
     4     2     5 1   
     5     5     6 ar  
     6     5     7 ar  
     7     6    10 ar  
     8     6    39 1   
     9     7     8 ar  
    10     7    40 1   
    11     8     9 ar  
    12     8    41 1   
    13     9    10 ar  
    14     9    42 1   
    15    10    11 1   
    16    11    12 1   
    17    11    26 1   
    18    11    43 1   
    19    12    13 1   
    20    12    22 1   
    21    13    14 ar  
    22    13    21 ar  
    23    14    15 ar  
    24    14    44 1   
    25    15    16 1   
    26    15    19 ar  
    27    16    17 1   
    28    16    18 1   
    29    19    20 ar  
    30    19    45 1   
    31    20    21 ar  
    32    20    46 1   
    33    21    47 1   
    34    22    23 2   
    35    22    24 1   
    36    24    25 1   
    37    24    26 2   
    38    25    48 1   
    39    26    27 1   
    40    27    28 2   
    41    27    29 1   
    42    29    30 ar  
    43    29    38 ar  
    44    30    31 ar  
    45    30    49 1   
    46    31    32 1   
    47    31    36 ar  
    48    32    33 1   
    49    32    34 1   
    50    32    35 1   
    51    36    37 ar  
    52    36    50 1   
    53    37    38 ar  
    54    37    51 1   
    55    38    52 1   
@<TRIPOS>SUBSTRUCTURE
     1 1D9         1 TEMP              0 ****  ****    0 ROOT
