@<TRIPOS>MOLECULE
molecule
   52    55     1     0     0
SMALL
bcc


@<TRIPOS>ATOM
      1 FAI          0.0000     0.0000     0.0000 f          1 1D9      -0.226967
      2 CBL          1.3990     0.0000     0.0000 c3         1 1D9       0.673200
      3 FAJ          1.8640     0.0000     1.3190 f          1 1D9      -0.226967
      4 FAK          1.8650    -1.1420    -0.6590 f          1 1D9      -0.226967
      5 CBH          1.9010     1.2310    -0.7100 ca         1 1D9      -0.185300
      6 CAW          3.2560     1.5030    -0.7460 ca         1 1D9      -0.072000
      7 CAT          1.0080     2.0840    -1.3300 ca         1 1D9      -0.080000
      8 CAN          1.4690     3.2120    -1.9810 ca         1 1D9      -0.128000
      9 CAQ          2.8240     3.4880    -2.0130 ca         1 1D9      -0.054000
     10 CBE          3.7170     2.6330    -1.3970 ca         1 1D9      -0.100300
     11 CBI          5.1940     2.9290    -1.4350 c3         1 1D9       0.204200
     12 NBJ          5.4280     4.3590    -1.1960 n          1 1D9      -0.351000
     13 CBF          5.0760     5.0680    -0.0450 ca         1 1D9       0.023600
     14 CAU          5.3570     6.4230     0.0490 ca         1 1D9      -0.125000
     15 CBC          5.0040     7.1260     1.2010 ca         1 1D9      -0.080600
     16 CAX          5.3010     8.5690     1.3080 c          1 1D9       0.880200
     17 OAD          5.8520     9.1460     0.3920 o          1 1D9      -0.828800
     18 OAA          4.9590     9.2460     2.4210 o          1 1D9      -0.828800
     19 CAO          4.3700     6.4600     2.2520 ca         1 1D9      -0.106000
     20 CAL          4.0940     5.1130     2.1490 ca         1 1D9      -0.141000
     21 CAR          4.4390     4.4170     1.0060 ca         1 1D9      -0.189000
     22 CBA          6.0400     4.8650    -2.2820 c          1 1D9       0.655700
     23 OAC          6.3770     6.0250    -2.4140 o          1 1D9      -0.579500
     24 CAZ          6.2430     3.8030    -3.2880 ce         1 1D9       0.068900
     25 OAE          6.8290     3.9690    -4.4970 oh         1 1D9      -0.470100
     26 CBB          5.7470     2.6380    -2.8110 cf         1 1D9      -0.246400
     27 CAY          5.7460     1.3410    -3.4950 c          1 1D9       0.615900
     28 OAB          5.0860     1.1860    -4.5050 o          1 1D9      -0.496100
     29 CBD          6.5510     0.2220    -2.9590 ca         1 1D9      -0.147600
     30 CAV          6.4950    -1.0350    -3.5650 ca         1 1D9      -0.028000
     31 CBG          7.2470    -2.0740    -3.0590 ca         1 1D9      -0.192300
     32 CBK          7.1880    -3.4320    -3.7120 c3         1 1D9       0.674200
     33 FAG          5.9260    -3.6190    -4.2860 f          1 1D9      -0.223300
     34 FAH          8.1690    -3.5140    -4.7060 f          1 1D9      -0.223300
     35 FAF          7.4150    -4.4220    -2.7500 f          1 1D9      -0.223300
     36 CAS          8.0560    -1.8740    -1.9540 ca         1 1D9      -0.066000
     37 CAM          8.1150    -0.6320    -1.3480 ca         1 1D9      -0.163000
     38 CAP          7.3730     0.4180    -1.8470 ca         1 1D9      -0.077000
     39 H1           3.9570     0.8330    -0.2630 ha         1 1D9       0.140000
     40 H2          -0.0530     1.8680    -1.3050 ha         1 1D9       0.145000
     41 H3           0.7690     3.8820    -2.4660 ha         1 1D9       0.143000
     42 H4           3.1840     4.3730    -2.5230 ha         1 1D9       0.156000
     43 H5           5.7170     2.3390    -0.6920 h1         1 1D9       0.083700
     44 H6           5.9210     6.9150    -0.7340 ha         1 1D9       0.191000
     45 H8           4.0960     7.0020     3.1490 ha         1 1D9       0.158000
     46 H9           3.6000     4.5990     2.9650 ha         1 1D9       0.112000
     47 H10          4.2190     3.3580     0.9310 ha         1 1D9       0.107000
     48 H11          7.6640     4.3930    -4.3850 ho         1 1D9       0.437000
     49 H12          5.8030    -1.2130    -4.3790 ha         1 1D9       0.171000
     50 H13          8.6460    -2.6940    -1.5630 ha         1 1D9       0.144000
     51 H14          8.7440    -0.4840    -0.4780 ha         1 1D9       0.144000
     52 H15          8.0150     1.2250    -1.5160 ha         1 1D9       0.162000
@<TRIPOS>BOND
     1    20    19 ar
     2    20    21 ar
     3    19    15 ar
     4    17    16 1
     5    21    13 ar
     6    15    16 1
     7    15    14 ar
     8    16    18 1
     9    13    14 ar
    10    13    12 1
    11    23    22 2
    12    12    22 1
    13    12    11 1
    14    22    24 1
    15    11    26 1
    16    11    10 1
    17    24    26 2
    18    24    25 1
    19    26    27 1
    20    10     6 ar
    21    10     9 ar
    22    28    27 2
    23     6     5 ar
    24    27    29 1
    25     1     2 1
    26     9     8 ar
    27     3     2 1
    28    29    30 ar
    29    29    38 ar
    30     5     2 1
    31     5     7 ar
    32    30    31 ar
    33     2     4 1
    34    35    32 1
    35     8     7 ar
    36    33    32 1
    37    38    37 ar
    38    31    32 1
    39    31    36 ar
    40    32    34 1
    41    37    36 ar
    42     6    39 1
    43     7    40 1
    44     8    41 1
    45     9    42 1
    46    11    43 1
    47    14    44 1
    48    19    45 1
    49    20    46 1
    50    21    47 1
    51    25    48 1
    52    30    49 1
    53    36    50 1
    54    37    51 1
    55    38    52 1
@<TRIPOS>SUBSTRUCTURE
     1 1D9         1 TEMP              0 ****  ****    0 ROOT
