@<TRIPOS>MOLECULE
1D9
   52    55     1     0     0
SMALL
bcc


@<TRIPOS>ATOM
      1 FAI         -0.4920     0.4730    -0.9790 f          1 1D9      -0.242633
      2 CBL          0.7670     0.2230    -0.4900 c3         1 1D9       0.688200
      3 FAJ          0.6310     0.3870     0.8680 f          1 1D9      -0.242633
      4 FAK          1.4950     1.3240    -0.8800 f          1 1D9      -0.242633
      5 CBH          1.3640    -1.1130    -0.9070 ca         1 1D9      -0.177300
      6 CAW          0.5270    -2.2090    -1.1100 ca         1 1D9      -0.076000
      7 CAT          2.7480    -1.2340    -1.0600 ca         1 1D9      -0.083000
      8 CAN          3.2880    -2.4630    -1.4290 ca         1 1D9      -0.128000
      9 CAQ          2.4580    -3.5650    -1.6430 ca         1 1D9      -0.066000
     10 CBE          1.0740    -3.4460    -1.4820 ca         1 1D9      -0.105300
     11 CBI          0.1200    -4.5950    -1.6790 c3         1 1D9       0.208200
     12 NBJ          0.6700    -5.9510    -1.4970 n          1 1D9      -0.354000
     13 CBF          1.4840    -6.2890    -0.3850 ca         1 1D9      -0.006400
     14 CAU          2.8290    -6.6670    -0.5630 ca         1 1D9      -0.109000
     15 CBC          3.6330    -6.9490     0.5420 ca         1 1D9      -0.116600
     16 CAX          5.1110    -7.2690     0.3360 c          1 1D9       0.910200
     17 OAD          5.7540    -7.7330     1.3170 o          1 1D9      -0.823300
     18 OAA          5.6030    -7.0290    -0.8020 o          1 1D9      -0.823300
     19 CAO          3.0870    -6.8960     1.8270 ca         1 1D9      -0.097000
     20 CAL          1.7500    -6.5470     2.0070 ca         1 1D9      -0.152000
     21 CAR          0.9420    -6.2380     0.9160 ca         1 1D9      -0.145000
     22 CBA          0.5630    -6.6870    -2.6700 c          1 1D9       0.670700
     23 OAC          0.9020    -7.8500    -2.9230 o          1 1D9      -0.598500
     24 CAZ         -0.1780    -5.8060    -3.6690 ce         1 1D9       0.066900
     25 OAE         -0.5020    -6.2550    -4.9030 oh         1 1D9      -0.467100
     26 CBB         -0.4510    -4.5990    -3.1110 cf         1 1D9      -0.267400
     27 CAY         -1.2460    -3.4740    -3.5930 c          1 1D9       0.620900
     28 OAB         -2.0570    -2.9020    -2.8480 o          1 1D9      -0.537100
     29 CBD         -1.0590    -3.0220    -4.9920 ca         1 1D9      -0.162600
     30 CAV         -2.0340    -2.1920    -5.5650 ca         1 1D9      -0.029000
     31 CBG         -1.8730    -1.7380    -6.8730 ca         1 1D9      -0.189300
     32 CBK         -2.9420    -0.8610    -7.5100 c3         1 1D9       0.689200
     33 FAG         -3.6810    -0.1130    -6.6270 f          1 1D9      -0.239967
     34 FAH         -2.4630     0.0620    -8.4100 f          1 1D9      -0.239967
     35 FAF         -3.8880    -1.5560    -8.2270 f          1 1D9      -0.239967
     36 CAS         -0.7420    -2.0900    -7.6160 ca         1 1D9      -0.061000
     37 CAM          0.2280    -2.9090    -7.0430 ca         1 1D9      -0.150000
     38 CAP          0.0700    -3.3780    -5.7380 ca         1 1D9      -0.039000
     39 H1          -0.5650    -2.0990    -0.9950 ha         1 1D9       0.162000
     40 H2           3.3990    -0.3630    -0.8890 ha         1 1D9       0.145000
     41 H3           4.3780    -2.5770    -1.5390 ha         1 1D9       0.156000
     42 H4           2.9180    -4.5310    -1.9130 ha         1 1D9       0.172000
     43 H5          -0.7400    -4.4770    -0.9510 h1         1 1D9       0.096700
     44 H6           3.2810    -6.7540    -1.5660 ha         1 1D9       0.161000
     45 H8           3.7390    -7.1380     2.6820 ha         1 1D9       0.157000
     46 H9           1.3220    -6.5100     3.0190 ha         1 1D9       0.115000
     47 H10         -0.1070    -5.9510     1.0750 ha         1 1D9       0.116000
     48 H11         -0.2070    -7.1860    -4.9500 ho         1 1D9       0.454000
     49 H12         -2.9160    -1.8970    -4.9710 ha         1 1D9       0.171000
     50 H13         -0.6230    -1.7160    -8.6450 ha         1 1D9       0.147000
     51 H14          1.1210    -3.1890    -7.6210 ha         1 1D9       0.146000
     52 H15          0.8330    -4.0390    -5.2960 ha         1 1D9       0.157000
@<TRIPOS>BOND
     1     1     2 1   
     2     2     3 1   
     3     2     4 1   
     4     2     5 1   
     5     5     6 ar  
     6     5     7 ar  
     7     6    10 ar  
     8     6    39 1   
     9     7     8 ar  
    10     7    40 1   
    11     8     9 ar  
    12     8    41 1   
    13     9    10 ar  
    14     9    42 1   
    15    10    11 1   
    16    11    12 1   
    17    11    26 1   
    18    11    43 1   
    19    12    13 1   
    20    12    22 1   
    21    13    14 ar  
    22    13    21 ar  
    23    14    15 ar  
    24    14    44 1   
    25    15    16 1   
    26    15    19 ar  
    27    16    17 1   
    28    16    18 1   
    29    19    20 ar  
    30    19    45 1   
    31    20    21 ar  
    32    20    46 1   
    33    21    47 1   
    34    22    23 2   
    35    22    24 1   
    36    24    25 1   
    37    24    26 2   
    38    25    48 1   
    39    26    27 1   
    40    27    28 2   
    41    27    29 1   
    42    29    30 ar  
    43    29    38 ar  
    44    30    31 ar  
    45    30    49 1   
    46    31    32 1   
    47    31    36 ar  
    48    32    33 1   
    49    32    34 1   
    50    32    35 1   
    51    36    37 ar  
    52    36    50 1   
    53    37    38 ar  
    54    37    51 1   
    55    38    52 1   
@<TRIPOS>SUBSTRUCTURE
     1 1D9         1 TEMP              0 ****  ****    0 ROOT
