@<TRIPOS>MOLECULE
1DA
   33    35     1     0     0
SMALL
bcc


@<TRIPOS>ATOM
      1 O5'         -0.6100    -0.3960     0.9910 oh         1 1DA      -0.612800
      2 C5'          0.6100    -0.2860     0.2770 c3         1 1DA       0.117400
      3 C4'          1.7670    -0.2190     1.2710 c3         1 1DA       0.100100
      4 O4'          1.8230     1.0890     1.8540 os         1 1DA      -0.408600
      5 C3'          1.6830    -1.2690     2.3970 c3         1 1DA       0.133100
      6 O3'          2.6160    -2.3040     2.2160 oh         1 1DA      -0.578800
      7 C2'          1.8750    -0.4730     3.7040 c3         1 1DA       0.077100
      8 O2'          3.1760    -0.7350     4.1900 oh         1 1DA      -0.600800
      9 C1'          1.7760     1.0310     3.2870 c3         1 1DA       0.233800
     10 N9           0.6000     1.7000     3.7820 na         1 1DA      -0.295000
     11 C8          -0.6490     1.8890     3.1470 cc         1 1DA       0.440700
     12 N7          -1.5010     2.6420     3.8560 nd         1 1DA      -0.571100
     13 C5          -0.8020     2.9910     5.0270 ca         1 1DA      -0.104900
     14 C6          -1.1790     3.7660     6.1570 ca         1 1DA       0.266600
     15 N6          -2.4520     4.2720     6.2900 nv         1 1DA      -0.839200
     16 C1          -0.1870     3.9200     7.1530 ca         1 1DA      -0.361300
     17 C2           1.0720     3.3060     7.0100 ca         1 1DA       0.452200
     18 N3           1.4750     2.5540     5.9740 nb         1 1DA      -0.716000
     19 C4           0.5340     2.4130     4.9970 ca         1 1DA       0.434800
     20 HO5'        -1.3070    -0.5070     0.3340 ho         1 1DA       0.411000
     21 H5'1         0.6000     0.6470    -0.3480 h1         1 1DA       0.044200
     22 H5'2         0.7520    -1.1850    -0.3820 h1         1 1DA       0.044200
     23 H4'          2.7290    -0.3350     0.6950 h1         1 1DA       0.077700
     24 H3'          0.6790    -1.7800     2.3920 h1         1 1DA       0.111700
     25 HO3'         3.4960    -1.9630     2.4280 ho         1 1DA       0.423000
     26 H2'          1.1050    -0.7590     4.4670 h1         1 1DA       0.081700
     27 HO2'         3.2280    -0.3540     5.0760 ho         1 1DA       0.429000
     28 H1'          2.6880     1.6010     3.6450 h2         1 1DA       0.108700
     29 H8          -0.8490     1.4290     2.1670 h5         1 1DA       0.095800
     30 HN61        -3.0270     4.2800     5.4810 hn         1 1DA       0.422800
     31 HN62        -2.5830     5.0090     6.9400 hn         1 1DA       0.422800
     32 H1          -0.3920     4.5110     8.0550 ha         1 1DA       0.142000
     33 H2           1.8290     3.4340     7.8070 h4         1 1DA       0.018100
@<TRIPOS>BOND
     1     1     2 1   
     2     1    20 1   
     3     2     3 1   
     4     2    21 1   
     5     2    22 1   
     6     3     4 1   
     7     3     5 1   
     8     3    23 1   
     9     4     9 1   
    10     5     6 1   
    11     5     7 1   
    12     5    24 1   
    13     6    25 1   
    14     7     8 1   
    15     7     9 1   
    16     7    26 1   
    17     8    27 1   
    18     9    10 1   
    19     9    28 1   
    20    10    11 1   
    21    10    19 1   
    22    11    12 2   
    23    11    29 1   
    24    12    13 1   
    25    13    14 ar  
    26    13    19 ar  
    27    14    15 1   
    28    14    16 ar  
    29    15    30 1   
    30    15    31 1   
    31    16    17 ar  
    32    16    32 1   
    33    17    18 ar  
    34    17    33 1   
    35    18    19 ar  
@<TRIPOS>SUBSTRUCTURE
     1 1DA         1 TEMP              0 ****  ****    0 ROOT
