@<TRIPOS>MOLECULE
molecule
   33    35     1     0     0
SMALL
bcc


@<TRIPOS>ATOM
      1 O5'          0.0000     0.0000     0.0000 oh         1 1DA      -0.591800
      2 C5'          1.4290     0.0000     0.0000 c3         1 1DA       0.147400
      3 C4'          1.9390     0.0000     1.4420 c3         1 1DA       0.126100
      4 O4'          1.4970    -1.1890     2.1330 os         1 1DA      -0.396600
      5 C3'          3.4810    -0.0790     1.4700 c3         1 1DA       0.087100
      6 O3'          4.0460     1.2210     1.6480 oh         1 1DA      -0.569800
      7 C2'          3.7900    -0.9770     2.6900 c3         1 1DA       0.094100
      8 O2'          4.5580    -0.2600     3.6580 oh         1 1DA      -0.559800
      9 C1'          2.3970    -1.3360     3.2510 c3         1 1DA       0.255800
     10 N9           2.3840    -2.7170     3.7380 na         1 1DA      -0.262000
     11 C8           2.0920    -3.8270     3.0050 cc         1 1DA       0.438700
     12 N7           2.1750    -4.8880     3.7530 nd         1 1DA      -0.596100
     13 C5           2.5290    -4.5290     5.0120 ca         1 1DA      -0.065900
     14 C6           2.7490    -5.2420     6.2030 ca         1 1DA       0.272600
     15 N6           2.6230    -6.6260     6.2420 nv         1 1DA      -0.937200
     16 C1           3.1010    -4.5230     7.3390 ca         1 1DA      -0.337300
     17 C2           3.2170    -3.1470     7.2640 ca         1 1DA       0.467200
     18 N3           3.0000    -2.4990     6.1360 nb         1 1DA      -0.721000
     19 C4           2.6620    -3.1330     5.0220 ca         1 1DA       0.443800
     20 HO5'        -0.3140     0.2400    -0.8560 ho         1 1DA       0.404000
     21 H5'1         1.7890     0.8850    -0.5110 h1         1 1DA       0.030200
     22 H5'2         1.7900    -0.8840    -0.5110 h1         1 1DA       0.030200
     23 H4'          1.6010     0.8850     1.9670 h1         1 1DA       0.088700
     24 H3'          3.8510    -0.5380     0.5610 h1         1 1DA       0.045700
     25 HO3'         4.5890     1.4320     0.9060 ho         1 1DA       0.402000
     26 H2'          4.3110    -1.8730     2.3750 h1         1 1DA       0.055700
     27 HO2'         5.4600    -0.5300     3.6070 ho         1 1DA       0.408000
     28 H1'          2.1250    -0.6500     4.0430 h2         1 1DA       0.113700
     29 H8           1.8300    -3.8270     1.9540 h5         1 1DA       0.084800
     30 HN61         3.1150    -7.1920     5.5780 hn         1 1DA       0.437300
     31 HN62         2.0800    -7.0590     6.9620 hn         1 1DA       0.437300
     32 H1           3.2830    -5.0360     8.2760 ha         1 1DA       0.142000
     33 H2           3.4910    -2.5890     8.1510 h4         1 1DA       0.025100
@<TRIPOS>BOND
     1     1     2 1   
     2     1    20 1   
     3     2     3 1   
     4     2    21 1   
     5     2    22 1   
     6     3     4 1   
     7     3     5 1   
     8     3    23 1   
     9     4     9 1   
    10     5     6 1   
    11     5     7 1   
    12     5    24 1   
    13     6    25 1   
    14     7     8 1   
    15     7     9 1   
    16     7    26 1   
    17     8    27 1   
    18     9    10 1   
    19     9    28 1   
    20    10    11 1   
    21    10    19 1   
    22    11    12 2   
    23    11    29 1   
    24    12    13 1   
    25    13    14 ar  
    26    13    19 ar  
    27    14    15 1   
    28    14    16 ar  
    29    15    30 1   
    30    15    31 1   
    31    16    17 ar  
    32    16    32 1   
    33    17    18 ar  
    34    17    33 1   
    35    18    19 ar  
@<TRIPOS>SUBSTRUCTURE
     1 1DA         1 TEMP              0 ****  ****    0 ROOT
