@<TRIPOS>MOLECULE
1DB
   35    34     1     0     0
SMALL
bcc


@<TRIPOS>ATOM
      1 O3           0.7680     0.2350     0.4500 o          1 1DB      -0.752533
      2 S            2.1760     0.4050     0.3970 s6         1 1DB       1.421800
      3 O1           2.7570     0.7300     1.6470 o          1 1DB      -0.752533
      4 O2           2.8470    -0.6390    -0.2890 o          1 1DB      -0.752533
      5 C1           2.4240     1.8250    -0.6550 c3         1 1DB      -0.295600
      6 C2           2.3270     3.1590     0.0350 c3         1 1DB      -0.029400
      7 C3           1.0710     3.9350    -0.3150 c3         1 1DB      -0.065400
      8 C4          -0.1560     3.3700     0.3660 c3         1 1DB      -0.103400
      9 C5          -1.4460     3.9820    -0.1360 c3         1 1DB      -0.072400
     10 C6          -1.6090     5.4470     0.2240 c3         1 1DB      -0.075400
     11 C7          -1.2840     6.3640    -0.9360 c3         1 1DB      -0.080400
     12 C8          -1.4010     7.8210    -0.5390 c3         1 1DB      -0.078400
     13 C9          -1.0890     8.7370    -1.7030 c3         1 1DB      -0.081400
     14 C10         -1.2010    10.1880    -1.3130 c3         1 1DB      -0.090100
     15 H1C1         1.6840     1.7640    -1.4890 h1         1 1DB       0.064700
     16 H1C2         3.4340     1.7230    -1.1220 h1         1 1DB       0.064700
     17 H2C1         2.3760     3.0090     1.1490 hc         1 1DB       0.033200
     18 H2C2         3.2120     3.7920    -0.2460 hc         1 1DB       0.033200
     19 H3C1         0.9220     3.9310    -1.4270 hc         1 1DB       0.014700
     20 H3C2         1.2050     5.0070    -0.0050 hc         1 1DB       0.014700
     21 H4C1        -0.1870     2.2540     0.2000 hc         1 1DB       0.072700
     22 H4C2        -0.0710     3.5300     1.4740 hc         1 1DB       0.072700
     23 H5C1        -2.3000     3.4050     0.3080 hc         1 1DB       0.032200
     24 H5C2        -1.5100     3.8540    -1.2490 hc         1 1DB       0.032200
     25 H6C1        -2.6670     5.6380     0.5490 hc         1 1DB       0.030700
     26 H6C2        -0.9480     5.7010     1.0950 hc         1 1DB       0.030700
     27 H7C1        -0.2420     6.1520    -1.2970 hc         1 1DB       0.041700
     28 H7C2        -1.9800     6.1520    -1.7910 hc         1 1DB       0.041700
     29 H8C1        -0.6970     8.0360     0.3070 hc         1 1DB       0.035700
     30 H8C2        -2.4390     8.0270    -0.1670 hc         1 1DB       0.035700
     31 H9C1        -0.0510     8.5260    -2.0750 hc         1 1DB       0.037700
     32 H9C2        -1.7920     8.5190    -2.5500 hc         1 1DB       0.037700
     33 H101        -0.9670    10.8460    -2.1840 hc         1 1DB       0.027033
     34 H102        -2.2350    10.4230    -0.9610 hc         1 1DB       0.027033
     35 H103        -0.4880    10.4300    -0.4870 hc         1 1DB       0.027033
@<TRIPOS>BOND
     1     1     2 1   
     2     2     3 1   
     3     2     4 1   
     4     2     5 1   
     5     5     6 1   
     6     5    15 1   
     7     5    16 1   
     8     6     7 1   
     9     6    17 1   
    10     6    18 1   
    11     7     8 1   
    12     7    19 1   
    13     7    20 1   
    14     8     9 1   
    15     8    21 1   
    16     8    22 1   
    17     9    10 1   
    18     9    23 1   
    19     9    24 1   
    20    10    11 1   
    21    10    25 1   
    22    10    26 1   
    23    11    12 1   
    24    11    27 1   
    25    11    28 1   
    26    12    13 1   
    27    12    29 1   
    28    12    30 1   
    29    13    14 1   
    30    13    31 1   
    31    13    32 1   
    32    14    33 1   
    33    14    34 1   
    34    14    35 1   
@<TRIPOS>SUBSTRUCTURE
     1 1DB         1 TEMP              0 ****  ****    0 ROOT
