@<TRIPOS>MOLECULE
molecule
   35    34     1     0     0
SMALL
bcc


@<TRIPOS>ATOM
      1 O3           0.0000     0.0000     0.0000 o          1 1DB      -0.707867
      2 S            1.4210     0.0000     0.0000 s6         1 1DB       1.249800
      3 O1           1.7580     0.0000     1.4840 o          1 1DB      -0.707867
      4 O2           2.1760     1.0980    -0.4940 o          1 1DB      -0.707867
      5 C1           2.0900    -1.5840    -0.5760 c3         1 1DB      -0.256600
      6 C2           1.8250    -1.7340    -2.0750 c3         1 1DB      -0.058400
      7 C3           2.3890    -3.0710    -2.5610 c3         1 1DB      -0.075400
      8 C4           2.1250    -3.2210    -4.0610 c3         1 1DB      -0.084400
      9 C5           2.6890    -4.5590    -4.5470 c3         1 1DB      -0.082400
     10 C6           2.4250    -4.7080    -6.0460 c3         1 1DB      -0.082400
     11 C7           2.9880    -6.0450    -6.5320 c3         1 1DB      -0.082400
     12 C8           2.7240    -6.1940    -8.0320 c3         1 1DB      -0.082400
     13 C9           3.2880    -7.5320    -8.5170 c3         1 1DB      -0.084400
     14 C10          3.0240    -7.6820   -10.0170 c3         1 1DB      -0.092100
     15 H1C1         1.6100    -2.3940    -0.0420 h1         1 1DB       0.073700
     16 H1C2         3.1570    -1.6130    -0.3930 h1         1 1DB       0.073700
     17 H2C1         2.3060    -0.9240    -2.6100 hc         1 1DB       0.039700
     18 H2C2         0.7580    -1.7040    -2.2580 hc         1 1DB       0.039700
     19 H3C1         3.4560    -3.1010    -2.3770 hc         1 1DB       0.035700
     20 H3C2         1.9080    -3.8820    -2.0270 hc         1 1DB       0.035700
     21 H4C1         1.0580    -3.1910    -4.2450 hc         1 1DB       0.038700
     22 H4C2         2.6060    -2.4110    -4.5950 hc         1 1DB       0.038700
     23 H5C1         2.2070    -5.3690    -4.0130 hc         1 1DB       0.037700
     24 H5C2         3.7560    -4.5890    -4.3630 hc         1 1DB       0.037700
     25 H6C1         2.9060    -3.8980    -6.5810 hc         1 1DB       0.039700
     26 H6C2         1.3570    -4.6780    -6.2300 hc         1 1DB       0.039700
     27 H7C1         4.0560    -6.0750    -6.3490 hc         1 1DB       0.039200
     28 H7C2         2.5070    -6.8550    -5.9980 hc         1 1DB       0.039200
     29 H8C1         1.6570    -6.1640    -8.2150 hc         1 1DB       0.039700
     30 H8C2         3.2050    -5.3840    -8.5660 hc         1 1DB       0.039700
     31 H9C1         4.3550    -7.5620    -8.3340 hc         1 1DB       0.038700
     32 H9C2         2.8070    -8.3420    -7.9830 hc         1 1DB       0.038700
     33 H101         3.4240    -8.6290   -10.3610 hc         1 1DB       0.029700
     34 H102         1.9570    -7.6520   -10.2010 hc         1 1DB       0.029700
     35 H103         3.5060    -6.8720   -10.5520 hc         1 1DB       0.029700
@<TRIPOS>BOND
     1     1     2 1
     2     2     3 1
     3     2     4 1
     4     2     5 1
     5     5     6 1
     6     5    15 1
     7     5    16 1
     8     6     7 1
     9     6    17 1
    10     6    18 1
    11     7     8 1
    12     7    19 1
    13     7    20 1
    14     8     9 1
    15     8    21 1
    16     8    22 1
    17     9    10 1
    18     9    23 1
    19     9    24 1
    20    10    11 1
    21    10    25 1
    22    10    26 1
    23    11    12 1
    24    11    27 1
    25    11    28 1
    26    12    13 1
    27    12    29 1
    28    12    30 1
    29    13    14 1
    30    13    31 1
    31    13    32 1
    32    14    33 1
    33    14    34 1
    34    14    35 1
@<TRIPOS>SUBSTRUCTURE
     1 1DB         1 TEMP              0 ****  ****    0 ROOT
