@<TRIPOS>MOLECULE
1DC
   43    45     1     0     0
SMALL
bcc


@<TRIPOS>ATOM
      1 CAH         -0.0200    -1.1800     1.2880 ca         1 1DC      -0.236300
      2 CAF          1.0970    -1.5130     2.0810 ca         1 1DC       0.421700
      3 NAN          1.2570    -1.0950     3.3500 nb         1 1DC      -0.616000
      4 CAG          0.2960    -0.3100     3.8750 ca         1 1DC       0.421700
      5 CAI         -0.8540     0.0840     3.1660 ca         1 1DC      -0.236300
      6 CAS         -1.0090    -0.3640     1.8470 ca         1 1DC      -0.133300
      7 CAX         -2.1900     0.0500     1.0200 c3         1 1DC       0.189800
      8 CAA         -2.2520     1.5650     0.8720 c3         1 1DC      -0.131100
      9 NAP         -3.4750    -0.4840     1.6280 ny         1 1DC      -0.691800
     10 CAR         -3.7080    -1.9500     1.3080 c          1 1DC       0.549100
     11 OAB         -3.7670    -2.2320     0.1210 o          1 1DC      -0.412100
     12 CAL         -3.8470    -2.8480     2.5000 c3         1 1DC      -0.141400
     13 CAM         -4.1310    -4.2720     2.0580 c3         1 1DC      -0.117700
     14 CAT         -4.2750    -5.2210     3.2390 cc         1 1DC       0.478900
     15 NAO         -4.1750    -4.7600     4.4720 nd         1 1DC      -0.646100
     16 CAV         -4.3150    -5.6650     5.5340 ca         1 1DC       0.167400
     17 CAJ         -4.2150    -5.2120     6.8700 ca         1 1DC      -0.121000
     18 CAD         -4.3540    -6.1130     7.9180 ca         1 1DC      -0.087000
     19 CAE         -4.5930    -7.4710     7.6760 ca         1 1DC      -0.133000
     20 CAK         -4.6950    -7.9380     6.3720 ca         1 1DC      -0.054000
     21 CAW         -4.5570    -7.0460     5.3020 ca         1 1DC      -0.176600
     22 CAU         -4.6640    -7.5320     3.9150 c          1 1DC       0.711100
     23 OAC         -4.8720    -8.7050     3.5710 o          1 1DC      -0.587500
     24 NAQ         -4.5110    -6.5560     2.9060 ns         1 1DC      -0.498400
     25 H1          -0.0890    -1.5460     0.2530 ha         1 1DC       0.152000
     26 H2           1.9090    -2.1480     1.6750 h4         1 1DC       0.053100
     27 H3           0.4620     0.0240     4.9180 h4         1 1DC       0.053100
     28 H4          -1.5850     0.7520     3.6410 ha         1 1DC       0.152000
     29 H5          -2.1220    -0.4150    -0.0140 hx         1 1DC       0.123700
     30 H6          -2.3490     2.0750     1.8610 hc         1 1DC       0.082367
     31 H7          -1.2950     1.9050     0.3990 hc         1 1DC       0.082367
     32 H8          -3.0970     1.8760     0.2090 hc         1 1DC       0.082367
     33 H9          -4.2560     0.0640     1.2490 hn         1 1DC       0.458300
     34 H10         -2.8950    -2.8120     3.1020 hc         1 1DC       0.122700
     35 H11         -4.6820    -2.4740     3.1580 hc         1 1DC       0.122700
     36 H12         -3.2960    -4.6350     1.3990 hc         1 1DC       0.087700
     37 H13         -5.0810    -4.2990     1.4560 hc         1 1DC       0.087700
     38 H14         -4.0280    -4.1480     7.0780 ha         1 1DC       0.146000
     39 H15         -4.2760    -5.7530     8.9560 ha         1 1DC       0.148000
     40 H16         -4.7010    -8.1680     8.5210 ha         1 1DC       0.154000
     41 H17         -4.8830    -9.0050     6.1610 ha         1 1DC       0.170000
     42 H18         -4.5780    -6.8340     1.9530 hn         1 1DC       0.340500
     43 HAP2        -3.4420    -0.3550     2.6450 hn         1 1DC       0.458300
@<TRIPOS>BOND
     1     1     2 ar  
     2     1     6 ar  
     3     1    25 1   
     4     2     3 ar  
     5     2    26 1   
     6     3     4 ar  
     7     4     5 ar  
     8     4    27 1   
     9     5     6 ar  
    10     5    28 1   
    11     6     7 1   
    12     7     8 1   
    13     7     9 1   
    14     7    29 1   
    15     8    30 1   
    16     8    31 1   
    17     8    32 1   
    18     9    10 1   
    19     9    33 1   
    20     9    43 1   
    21    10    11 2   
    22    10    12 1   
    23    12    13 1   
    24    12    34 1   
    25    12    35 1   
    26    13    14 1   
    27    13    36 1   
    28    13    37 1   
    29    14    15 2   
    30    14    24 1   
    31    15    16 1   
    32    16    17 ar  
    33    16    21 ar  
    34    17    18 ar  
    35    17    38 1   
    36    18    19 ar  
    37    18    39 1   
    38    19    20 ar  
    39    19    40 1   
    40    20    21 ar  
    41    20    41 1   
    42    21    22 1   
    43    22    23 2   
    44    22    24 1   
    45    24    42 1   
@<TRIPOS>SUBSTRUCTURE
     1 1DC         1 TEMP              0 ****  ****    0 ROOT
