@<TRIPOS>MOLECULE
1DC
   42    44     1     0     0
SMALL
bcc


@<TRIPOS>ATOM
      1 CAH          0.0000     0.0000     0.0000 ca         1 1DC      -0.217300
      2 CAF          1.3820     0.0000     0.0000 ca         1 1DC       0.411200
      3 NAN          2.0570     0.0000     1.1330 nb         1 1DC      -0.580000
      4 CAG          1.4480    -0.0010     2.3030 ca         1 1DC       0.411200
      5 CAI          0.0690    -0.0010     2.3820 ca         1 1DC      -0.217300
      6 CAS         -0.6750     0.0050     1.2110 ca         1 1DC      -0.074300
      7 CAX         -2.1810     0.0040     1.2540 c3         1 1DC       0.077000
      8 CAA         -2.6990    -1.4150     1.0120 c3         1 1DC      -0.012100
      9 NAP         -2.7000     0.8970     0.2160 ns         1 1DC      -0.201900
     10 CAR         -3.9190     1.4570     0.3540 c          1 1DC       0.574100
     11 OAB         -4.5860     1.2200     1.3390 o          1 1DC      -0.656100
     12 CAL         -4.4520     2.3750    -0.7140 c3         1 1DC      -0.087400
     13 CAM         -5.8440     2.8690    -0.3140 c3         1 1DC      -0.043700
     14 CAT         -6.3780     3.7880    -1.3830 cc         1 1DC       0.290900
     15 NAO         -5.6350     4.0180    -2.4230 nd         1 1DC      -0.557100
     16 CAV         -6.0510     4.8340    -3.4250 ca         1 1DC       0.155400
     17 CAJ         -5.2520     5.0830    -4.5440 ca         1 1DC      -0.101000
     18 CAD         -5.7130     5.9180    -5.5370 ca         1 1DC      -0.062000
     19 CAE         -6.9620     6.5170    -5.4410 ca         1 1DC      -0.130000
     20 CAK         -7.7660     6.2870    -4.3470 ca         1 1DC      -0.014000
     21 CAW         -7.3200     5.4450    -3.3310 ca         1 1DC      -0.216600
     22 CAU         -8.1340     5.1630    -2.1400 c          1 1DC       0.618100
     23 OAC         -9.2370     5.6580    -1.9960 o          1 1DC      -0.661500
     24 NAQ         -7.6120     4.3280    -1.2110 ns         1 1DC      -0.004400
     25 H1          -0.5490     0.0020    -0.9340 ha         1 1DC       0.117500
     26 H2           1.9170    -0.0010    -0.9420 h4         1 1DC      -0.018400
     27 H3           2.0360    -0.0030     3.2120 h4         1 1DC      -0.018400
     28 H4          -0.4250    -0.0000     3.3460 ha         1 1DC       0.117500
     29 H5          -2.5140     0.3480     2.2260 h1         1 1DC       0.061700
     30 H6          -3.3700    -1.6970     1.8140 hc         1 1DC       0.015033
     31 H7          -1.8630    -2.1040     0.9810 hc         1 1DC       0.015033
     32 H8          -3.2290    -1.4490     0.0680 hc         1 1DC       0.015033
     33 H9          -2.1370     1.1170    -0.5820 hn         1 1DC       0.182500
     34 H10         -4.5150     1.8390    -1.6530 hc         1 1DC       0.044700
     35 H11         -3.7870     3.2230    -0.8270 hc         1 1DC       0.044700
     36 H12         -6.5090     2.0210    -0.2020 hc         1 1DC       0.042700
     37 H13         -5.7810     3.4050     0.6250 hc         1 1DC       0.042700
     38 H14         -4.2760     4.6220    -4.6300 ha         1 1DC       0.117000
     39 H15         -5.0930     6.1100    -6.4040 ha         1 1DC       0.102000
     40 H16         -7.3060     7.1710    -6.2330 ha         1 1DC       0.108000
     41 H17         -8.7400     6.7570    -4.2770 ha         1 1DC       0.124000
     42 H18         -8.1400     4.1070    -0.3900 hn         1 1DC       0.185500
@<TRIPOS>BOND
     1     1     2 ar  
     2     1     6 ar  
     3     1    25 1   
     4     2     3 ar  
     5     2    26 1   
     6     3     4 ar  
     7     4     5 ar  
     8     4    27 1   
     9     5     6 ar  
    10     5    28 1   
    11     6     7 1   
    12     7     8 1   
    13     7     9 1   
    14     7    29 1   
    15     8    30 1   
    16     8    31 1   
    17     8    32 1   
    18     9    10 1   
    19     9    33 1   
    20    10    11 2   
    21    10    12 1   
    22    12    13 1   
    23    12    34 1   
    24    12    35 1   
    25    13    14 1   
    26    13    36 1   
    27    13    37 1   
    28    14    15 2   
    29    14    24 1   
    30    15    16 1   
    31    16    17 ar  
    32    16    21 ar  
    33    17    18 ar  
    34    17    38 1   
    35    18    19 ar  
    36    18    39 1   
    37    19    20 ar  
    38    19    40 1   
    39    20    21 ar  
    40    20    41 1   
    41    21    22 1   
    42    22    23 2   
    43    22    24 1   
    44    24    42 1   
@<TRIPOS>SUBSTRUCTURE
     1 1DC         1 TEMP              0 ****  ****    0 ROOT
