@<TRIPOS>MOLECULE
molecule
   31    33     1     0     0
SMALL
bcc


@<TRIPOS>ATOM
      1 F20          0.0000     0.0000     0.0000 f          1 1DD      -0.127900
      2 C17          1.3510     0.0000     0.0000 ca         1 1DD       0.195900
      3 C16          2.0450     0.0000     1.1990 ca         1 1DD      -0.189000
      4 C15          3.4260    -0.0010     1.1960 ca         1 1DD       0.003000
      5 C18          2.0430    -0.0050    -1.1990 ca         1 1DD      -0.189000
      6 C19          3.4250    -0.0100    -1.1990 ca         1 1DD       0.003000
      7 C14          4.1170    -0.0000    -0.0020 ca         1 1DD      -0.337500
      8 S10          5.8780    -0.0070    -0.0020 sy         1 1DD       1.415300
      9 O11          6.2780    -0.5380     1.2540 o          1 1DD      -0.613800
     10 O12          6.2770    -0.5660    -1.2460 o          1 1DD      -0.613800
     11 N9           6.3740     1.5740    -0.0200 na         1 1DD      -0.300800
     12 C8           6.6160     2.3550     1.0670 cc         1 1DD       0.446800
     13 C13          6.4740     1.9090     2.5000 c3         1 1DD      -0.115400
     14 N7           6.9900     3.5430     0.6910 nd         1 1DD      -0.578100
     15 C2           7.0130     3.6050    -0.6660 ca         1 1DD       0.107400
     16 C3           6.6240     2.3400    -1.1400 ca         1 1DD      -0.083200
     17 C4           6.5610     2.1050    -2.5070 ca         1 1DD      -0.120000
     18 C5           6.8840     3.1140    -3.3890 ca         1 1DD      -0.112000
     19 C6           7.2730     4.3600    -2.9200 ca         1 1DD      -0.135000
     20 C1           7.3320     4.6130    -1.5780 ca         1 1DD      -0.074000
     21 H1           1.5040    -0.0010     2.1380 ha         1 1DD       0.156000
     22 H2           3.9690     0.0030     2.1330 ha         1 1DD       0.156000
     23 H3           1.5020    -0.0130    -2.1370 ha         1 1DD       0.156000
     24 H4           3.9670    -0.0120    -2.1370 ha         1 1DD       0.156000
     25 H5           5.4230     1.8170     2.7460 hc         1 1DD       0.073700
     26 H6           6.9360     2.6390     3.1530 hc         1 1DD       0.073700
     27 H7           6.9600     0.9500     2.6290 hc         1 1DD       0.073700
     28 H8           6.2590     1.1330    -2.8790 ha         1 1DD       0.152000
     29 H9           6.8430     2.9300    -4.4560 ha         1 1DD       0.138000
     30 H10          7.5240     5.1440    -3.6250 ha         1 1DD       0.136000
     31 H11          7.6370     5.5900    -1.2230 ha         1 1DD       0.146000
@<TRIPOS>BOND
     1    10     8 2
     2     9     8 2
     3     8     7 1
     4     8    11 1
     5     6     7 ar
     6     6     5 ar
     7    13    12 1
     8     7     4 ar
     9     5     2 ar
    10     4     3 ar
    11    11    12 1
    12    11    16 1
    13    12    14 2
    14     2     3 ar
    15     2     1 1
    16    16    17 ar
    17    16    15 ar
    18    14    15 1
    19    17    18 ar
    20    15    20 ar
    21    18    19 ar
    22    20    19 ar
    23     3    21 1
    24     4    22 1
    25     5    23 1
    26     6    24 1
    27    13    25 1
    28    13    26 1
    29    13    27 1
    30    17    28 1
    31    18    29 1
    32    19    30 1
    33    20    31 1
@<TRIPOS>SUBSTRUCTURE
     1 1DD         1 TEMP              0 ****  ****    0 ROOT
