@<TRIPOS>MOLECULE
1DD
   31    33     1     0     0
SMALL
bcc


@<TRIPOS>ATOM
      1 F20         0.0610    0.1830    0.0750 f         1 1DD     -0.124900
      2 C17         1.4090    0.1260    0.0590 ca        1 1DD      0.200900
      3 C16         2.1170   -0.0950    1.2570 ca        1 1DD     -0.194000
      4 C15         3.5040   -0.1480    1.2250 ca        1 1DD      0.015500
      5 C18         2.1040    0.2830   -1.1570 ca        1 1DD     -0.194000
      6 C19         3.4910    0.2240   -1.1560 ca        1 1DD      0.015500
      7 C14         4.2130    0.0110    0.0260 ca        1 1DD     -0.415500
      8 S10         5.8880   -0.0970   -0.0040 sy        1 1DD      1.517300
      9 O11         6.3280   -0.6830    1.1960 o         1 1DD     -0.636800
     10 O12         6.2820   -0.7130   -1.2040 o         1 1DD     -0.636800
     11 N9          6.3480    1.4970   -0.0300 na        1 1DD     -0.355800
     12 C8          6.5220    2.4080    1.0780 cc        1 1DD      0.467800
     13 C13         6.3500    1.9460    2.4840 c3        1 1DD     -0.135400
     14 N7          6.8530    3.6470    0.7030 nd        1 1DD     -0.546100
     15 C2          6.9220    3.6220   -0.7100 ca        1 1DD      0.082400
     16 C3          6.6160    2.2860   -1.1770 ca        1 1DD     -0.054200
     17 C4          6.6340    1.9750   -2.5380 ca        1 1DD     -0.135000
     18 C5          6.9430    3.0040   -3.4250 ca        1 1DD     -0.112000
     19 C6          7.2310    4.3010   -2.9820 ca        1 1DD     -0.143000
     20 C1          7.2290    4.6290   -1.6290 ca        1 1DD     -0.074000
     21 H1          1.5670   -0.2240    2.2010 ha        1 1DD      0.161500
     22 H2          4.0630   -0.3360    2.1610 ha        1 1DD      0.159500
     23 H3          1.5440    0.4500   -2.0890 ha        1 1DD      0.161500
     24 H4          4.0390    0.3350   -2.1100 ha        1 1DD      0.159500
     25 H5          7.0430    1.0910    2.6970 hc        1 1DD      0.075700
     26 H6          5.2980    1.6030    2.6470 hc        1 1DD      0.075700
     27 H7          6.5710    2.7810    3.1950 hc        1 1DD      0.075700
     28 H8          6.4360    0.9530   -2.8970 ha        1 1DD      0.164000
     29 H9          6.9680    2.7870   -4.5040 ha        1 1DD      0.137000
     30 H10         7.4690    5.0790   -3.7230 ha        1 1DD      0.137000
     31 H11         7.4630    5.6470   -1.2870 ha        1 1DD      0.152000
@<TRIPOS>BOND
     1    1    2 1   
     2    2    3 ar  
     3    2    5 ar  
     4    3    4 ar  
     5    3   21 1   
     6    4    7 ar  
     7    4   22 1   
     8    5    6 ar  
     9    5   23 1   
    10    6    7 ar  
    11    6   24 1   
    12    7    8 1   
    13    8    9 2   
    14    8   10 2   
    15    8   11 1   
    16   11   12 1   
    17   11   16 1   
    18   12   13 1   
    19   12   14 2   
    20   13   25 1   
    21   13   26 1   
    22   13   27 1   
    23   14   15 1   
    24   15   16 ar  
    25   15   20 ar  
    26   16   17 ar  
    27   17   18 ar  
    28   17   28 1   
    29   18   19 ar  
    30   18   29 1   
    31   19   20 ar  
    32   19   30 1   
    33   20   31 1   
@<TRIPOS>SUBSTRUCTURE
     1 1DD         1 TEMP              0 ****  ****    0 ROOT
