@<TRIPOS>MOLECULE
1DD
   31    33     1     0     0
SMALL
bcc


@<TRIPOS>ATOM
      1 F20         -0.0040     0.2360    -0.1630 f          1 1DD      -0.124900
      2 C17          1.3420     0.1330    -0.1280 ca         1 1DD       0.200900
      3 C16          2.0280     0.3020     1.0910 ca         1 1DD      -0.194000
      4 C15          3.4120     0.1960     1.1090 ca         1 1DD       0.015500
      5 C18          2.0550    -0.1480    -1.3110 ca         1 1DD      -0.194000
      6 C19          3.4390    -0.2470    -1.2600 ca         1 1DD       0.015500
      7 C14          4.1400    -0.0760    -0.0580 ca         1 1DD      -0.415500
      8 S10          5.8090    -0.2410    -0.0040 sy         1 1DD       1.517300
      9 O11          6.1690    -0.8350     1.2170 o          1 1DD      -0.636800
     10 O12          6.2430    -0.8760    -1.1820 o          1 1DD      -0.636800
     11 N9           6.3230     1.3370    -0.0180 na         1 1DD      -0.355800
     12 C8           6.5400     2.2090    -1.1500 cc         1 1DD       0.467800
     13 C13          6.3660     1.7140    -2.5440 c3         1 1DD      -0.135400
     14 N7           6.9090     3.4470    -0.8070 nd         1 1DD      -0.546100
     15 C2           6.9630     3.4600     0.6080 ca         1 1DD       0.082400
     16 C3           6.6070     2.1490     1.1090 ca         1 1DD      -0.054200
     17 C4           6.6010     1.8770     2.4780 ca         1 1DD      -0.135000
     18 C5           6.9360     2.9200     3.3390 ca         1 1DD      -0.112000
     19 C6           7.2720     4.1930     2.8620 ca         1 1DD      -0.143000
     20 C1           7.2950     4.4820     1.5010 ca         1 1DD      -0.074000
     21 H1           1.4640     0.5160     2.0110 ha         1 1DD       0.161500
     22 H2           3.9540     0.3160     2.0650 ha         1 1DD       0.159500
     23 H3           1.5110    -0.2860    -2.2570 ha         1 1DD       0.161500
     24 H4           4.0010    -0.4820    -2.1830 ha         1 1DD       0.159500
     25 H5           7.0310     0.8300    -2.7250 hc         1 1DD       0.075700
     26 H6           5.3040     1.4020    -2.7090 hc         1 1DD       0.075700
     27 H7           6.6230     2.5190    -3.2760 hc         1 1DD       0.075700
     28 H8           6.3640     0.8730     2.8640 ha         1 1DD       0.164000
     29 H9           6.9420     2.7330     4.4240 ha         1 1DD       0.137000
     30 H10          7.5300     4.9840     3.5840 ha         1 1DD       0.137000
     31 H11          7.5670     5.4810     1.1330 ha         1 1DD       0.152000
@<TRIPOS>BOND
     1     1     2 1   
     2     2     3 ar  
     3     2     5 ar  
     4     3     4 ar  
     5     3    21 1   
     6     4     7 ar  
     7     4    22 1   
     8     5     6 ar  
     9     5    23 1   
    10     6     7 ar  
    11     6    24 1   
    12     7     8 1   
    13     8     9 2   
    14     8    10 2   
    15     8    11 1   
    16    11    12 1   
    17    11    16 1   
    18    12    13 1   
    19    12    14 2   
    20    13    25 1   
    21    13    26 1   
    22    13    27 1   
    23    14    15 1   
    24    15    16 ar  
    25    15    20 ar  
    26    16    17 ar  
    27    17    18 ar  
    28    17    28 1   
    29    18    19 ar  
    30    18    29 1   
    31    19    20 ar  
    32    19    30 1   
    33    20    31 1   
@<TRIPOS>SUBSTRUCTURE
     1 1DD         1 TEMP              0 ****  ****    0 ROOT
