@<TRIPOS>MOLECULE
1DE
   46    50     1     0     0
SMALL
bcc


@<TRIPOS>ATOM
      1 CAO         -0.1300     0.4300    -0.1730 ca         1 1DE      -0.075000
      2 CBD          1.2440     0.3090    -0.2310 ca         1 1DE       0.066100
      3 OAQ          2.1860     0.7700     0.6840 os         1 1DE      -0.315900
      4 CAP          3.4860     0.4350     0.1510 c3         1 1DE       0.319200
      5 OAR          3.2850    -0.2950    -1.0840 os         1 1DE      -0.329900
      6 CBF          1.9130    -0.3430    -1.2990 ca         1 1DE       0.058100
      7 CAZ          1.2040    -0.9030    -2.3460 ca         1 1DE       0.024400
      8 Cl2          1.9580    -1.6900    -3.6410 cl         1 1DE      -0.075400
      9 CAM         -0.2000    -0.7920    -2.2950 ca         1 1DE      -0.123000
     10 CBB         -0.8500    -0.1470    -1.2390 ca         1 1DE      -0.084300
     11 CBG         -2.3570    -0.1020    -1.2920 c3         1 1DE       0.212200
     12 CAX         -2.9660    -1.3830    -0.6880 ce         1 1DE      -0.256400
     13 CAU         -2.6740    -2.6840    -1.2870 c          1 1DE       0.655900
     14 OAB         -2.6530    -2.8190    -2.5220 o          1 1DE      -0.555100
     15 CBE         -2.3850    -3.8070    -0.3970 cc         1 1DE      -0.203700
     16 CAL         -2.2720    -3.7430     0.9860 cd         1 1DE      -0.080000
     17 CAK         -1.9600    -5.0070     1.5550 cd         1 1DE      -0.165000
     18 CAY         -1.8500    -5.9850     0.5760 cc         1 1DE      -0.041700
     19 Cl1         -1.4950    -7.5940     0.8710 cl         1 1DE      -0.040400
     20 SAS         -2.1130    -5.3690    -0.9540 ss         1 1DE       0.132200
     21 CAV         -3.8110    -1.0170     0.3080 cf         1 1DE       0.066900
     22 OAE         -4.5760    -1.8040     1.1010 oh         1 1DE      -0.468100
     23 CAW         -3.8510     0.5020     0.4270 c          1 1DE       0.673700
     24 OAC         -4.5730     1.0940     1.2390 o          1 1DE      -0.600500
     25 NBH         -3.0040     0.9960    -0.5540 n          1 1DE      -0.360000
     26 CBC         -2.6570     2.3550    -0.7580 ca         1 1DE      -0.000400
     27 CAN         -2.2670     3.1690     0.3230 ca         1 1DE      -0.103000
     28 CAJ         -2.7010     2.8980    -2.0600 ca         1 1DE      -0.155000
     29 CAH         -2.3480     4.2290    -2.2590 ca         1 1DE      -0.152000
     30 CAI         -1.9540     5.0290    -1.1880 ca         1 1DE      -0.100000
     31 CBA         -1.9100     4.5010     0.1050 ca         1 1DE      -0.115600
     32 CAT         -1.4540     5.3690     1.2750 c          1 1DE       0.910200
     33 OAD         -1.3070     4.8100     2.3970 o          1 1DE      -0.822800
     34 OAA         -1.2430     6.5920     1.0460 o          1 1DE      -0.822800
     35 H1          -0.6190     0.9760     0.6480 ha         1 1DE       0.187000
     36 H2           4.0060    -0.2360     0.8770 h2         1 1DE       0.071700
     37 H3           4.0360     1.3810    -0.0790 h2         1 1DE       0.071700
     38 H4          -0.7990    -1.2390    -3.1080 ha         1 1DE       0.164000
     39 H5          -2.6770    -0.0300    -2.3760 h1         1 1DE       0.094700
     40 H6          -2.4180    -2.8350     1.5790 ha         1 1DE       0.175000
     41 H7          -1.8270    -5.1710     2.6260 ha         1 1DE       0.165000
     42 H8          -5.1070    -1.2050     1.6610 ho         1 1DE       0.452000
     43 H9          -2.2440     2.7880     1.3590 ha         1 1DE       0.166000
     44 H10         -3.0060     2.2800    -2.9160 ha         1 1DE       0.113000
     45 H11         -2.3840     4.6480    -3.2750 ha         1 1DE       0.112000
     46 H12         -1.6720     6.0840    -1.3300 ha         1 1DE       0.158000
@<TRIPOS>BOND
     1     1     2 ar  
     2     1    10 ar  
     3     1    35 1   
     4     2     3 1   
     5     2     6 ar  
     6     3     4 1   
     7     4     5 1   
     8     4    36 1   
     9     4    37 1   
    10     5     6 1   
    11     6     7 ar  
    12     7     8 1   
    13     7     9 ar  
    14     9    10 ar  
    15     9    38 1   
    16    10    11 1   
    17    11    12 1   
    18    11    25 1   
    19    11    39 1   
    20    12    13 1   
    21    12    21 2   
    22    13    14 2   
    23    13    15 1   
    24    15    16 2   
    25    15    20 1   
    26    16    17 1   
    27    16    40 1   
    28    17    18 2   
    29    17    41 1   
    30    18    19 1   
    31    18    20 1   
    32    21    22 1   
    33    21    23 1   
    34    22    42 1   
    35    23    24 2   
    36    23    25 1   
    37    25    26 1   
    38    26    27 ar  
    39    26    28 ar  
    40    27    31 ar  
    41    27    43 1   
    42    28    29 ar  
    43    28    44 1   
    44    29    30 ar  
    45    29    45 1   
    46    30    31 ar  
    47    30    46 1   
    48    31    32 1   
    49    32    33 1   
    50    32    34 1   
@<TRIPOS>SUBSTRUCTURE
     1 1DE         1 TEMP              0 ****  ****    0 ROOT
