@<TRIPOS>MOLECULE
1DE
   46    50     1     0     0
SMALL
bcc


@<TRIPOS>ATOM
      1 CAO          0.0000     0.0000     0.0000 ca         1 1DE      -0.080000
      2 CBD          1.3860     0.0000     0.0000 ca         1 1DE       0.061100
      3 OAQ          2.2900     0.0000     1.0230 os         1 1DE      -0.318900
      4 CAP          3.5380    -0.4110     0.4330 c3         1 1DE       0.430200
      5 OAR          3.4190     0.0020    -0.9410 os         1 1DE      -0.307900
      6 CBF          2.0800     0.0010    -1.2070 ca         1 1DE       0.059100
      7 CAZ          1.3790     0.0020    -2.4040 ca         1 1DE      -0.014600
      8 Cl2          2.2400     0.0040    -3.9120 cl         1 1DE      -0.005400
      9 CAM         -0.0040     0.0010    -2.3960 ca         1 1DE      -0.063000
     10 CBB         -0.6910     0.0010    -1.1980 ca         1 1DE      -0.094300
     11 CBG         -2.1980    -0.0050    -1.1940 c3         1 1DE       0.130200
     12 CAX         -2.7240     1.3530    -1.5930 ce         1 1DE      -0.288400
     13 CAU         -2.4910     2.6220    -0.8940 c          1 1DE       0.713900
     14 OAB         -1.8510     3.5080    -1.4340 o          1 1DE      -0.534100
     15 CBE         -3.0270     2.8240     0.4540 cc         1 1DE      -0.085700
     16 CAL         -2.9270     3.9800     1.1840 cd         1 1DE      -0.046000
     17 CAK         -3.5200     3.8940     2.4190 cd         1 1DE      -0.149000
     18 CAY         -4.0870     2.7100     2.6970 cc         1 1DE       0.027300
     19 Cl1         -4.9030     2.3360     4.1830 cl         1 1DE       0.054600
     20 SAS         -3.9080     1.6270     1.3920 ss         1 1DE      -0.171800
     21 CAV         -3.4530     1.1760    -2.7190 cf         1 1DE       0.098900
     22 OAE         -4.0970     2.1530    -3.3990 oh         1 1DE      -0.455100
     23 CAW         -3.4340    -0.2520    -3.0900 c          1 1DE       0.563700
     24 OAC         -3.9960    -0.7310    -4.0560 o          1 1DE      -0.621500
     25 NBH         -2.7010    -0.9490    -2.2010 n          1 1DE       0.054000
     26 CBC         -2.4600    -2.3250    -2.2310 ca         1 1DE      -0.121400
     27 CAN         -2.9950    -3.1000    -3.2480 ca         1 1DE      -0.106000
     28 CAJ         -1.6790    -2.9160    -1.2440 ca         1 1DE      -0.178000
     29 CAH         -1.4390    -4.2770    -1.2690 ca         1 1DE      -0.120000
     30 CAI         -1.9720    -5.0590    -2.2750 ca         1 1DE      -0.075000
     31 CBA         -2.7520    -4.4740    -3.2740 ca         1 1DE      -0.077600
     32 CAT         -3.3180    -5.3080    -4.3550 c          1 1DE       0.970200
     33 OAD         -3.9960    -4.7960    -5.2240 o          1 1DE      -0.878300
     34 OAA         -3.0820    -6.6340    -4.3770 o          1 1DE      -0.878300
     35 H1          -0.5420    -0.0000     0.9380 ha         1 1DE       0.116000
     36 H2           3.6320    -1.4890     0.4860 h2         1 1DE       0.013200
     37 H3           4.3590     0.1150     0.9050 h2         1 1DE       0.013200
     38 H4          -0.5500     0.0020    -3.3320 ha         1 1DE       0.137000
     39 H5          -2.5730    -0.2750    -0.2140 h1         1 1DE       0.056700
     40 H6          -2.4300     4.8720     0.8220 ha         1 1DE       0.138000
     41 H7          -3.5290     4.7220     3.1190 ha         1 1DE       0.128000
     42 H8          -5.0220     1.9700    -3.4130 ho         1 1DE       0.415000
     43 H9          -3.6000    -2.6410    -4.0210 ha         1 1DE       0.177000
     44 H10         -1.2580    -2.3080    -0.4530 ha         1 1DE       0.095000
     45 H11         -0.8320    -4.7320    -0.4960 ha         1 1DE       0.085000
     46 H12         -1.7810    -6.1260    -2.2910 ha         1 1DE       0.131000
@<TRIPOS>BOND
     1     1     2 ar  
     2     1    10 ar  
     3     1    35 1   
     4     2     3 1   
     5     2     6 ar  
     6     3     4 1   
     7     4     5 1   
     8     4    36 1   
     9     4    37 1   
    10     5     6 1   
    11     6     7 ar  
    12     7     8 1   
    13     7     9 ar  
    14     9    10 ar  
    15     9    38 1   
    16    10    11 1   
    17    11    12 1   
    18    11    25 1   
    19    11    39 1   
    20    12    13 1   
    21    12    21 2   
    22    13    14 2   
    23    13    15 1   
    24    15    16 2   
    25    15    20 1   
    26    16    17 1   
    27    16    40 1   
    28    17    18 2   
    29    17    41 1   
    30    18    19 1   
    31    18    20 1   
    32    21    22 1   
    33    21    23 1   
    34    22    42 1   
    35    23    24 2   
    36    23    25 1   
    37    25    26 1   
    38    26    27 ar  
    39    26    28 ar  
    40    27    31 ar  
    41    27    43 1   
    42    28    29 ar  
    43    28    44 1   
    44    29    30 ar  
    45    29    45 1   
    46    30    31 ar  
    47    30    46 1   
    48    31    32 1   
    49    32    33 1   
    50    32    34 1   
@<TRIPOS>SUBSTRUCTURE
     1 1DE         1 TEMP              0 ****  ****    0 ROOT
