@<TRIPOS>MOLECULE
molecule
   46    50     1     0     0
SMALL
bcc


@<TRIPOS>ATOM
      1 CAO          0.0000     0.0000     0.0000 ca         1 1DE      -0.105000
      2 CBD          1.3860     0.0000     0.0000 ca         1 1DE       0.053100
      3 OAQ          2.2900     0.0000     1.0230 os         1 1DE      -0.329900
      4 CAP          3.5380    -0.4110     0.4330 c3         1 1DE       0.330200
      5 OAR          3.4190     0.0020    -0.9410 os         1 1DE      -0.316900
      6 CBF          2.0800     0.0010    -1.2070 ca         1 1DE       0.057100
      7 CAZ          1.3790     0.0020    -2.4040 ca         1 1DE       0.049400
      8 Cl2          2.2400     0.0040    -3.9120 cl         1 1DE      -0.085400
      9 CAM         -0.0040     0.0010    -2.3960 ca         1 1DE      -0.074000
     10 CBB         -0.6910     0.0010    -1.1980 ca         1 1DE      -0.086300
     11 CBG         -2.1980    -0.0050    -1.1940 c3         1 1DE       0.209200
     12 CAX         -2.7240     1.3530    -1.5930 ce         1 1DE      -0.253400
     13 CAU         -2.4910     2.6220    -0.8940 c          1 1DE       0.642900
     14 OAB         -1.8510     3.5080    -1.4340 o          1 1DE      -0.491100
     15 CBE         -3.0270     2.8240     0.4540 cd         1 1DE      -0.141700
     16 CAL         -2.9270     3.9800     1.1840 cc         1 1DE      -0.080000
     17 CAK         -3.5200     3.8940     2.4190 cc         1 1DE      -0.172000
     18 CAY         -4.0870     2.7100     2.6970 cd         1 1DE       0.041300
     19 Cl1         -4.9030     2.3360     4.1830 cl         1 1DE      -0.054400
     20 SAS         -3.9080     1.6270     1.3920 ss         1 1DE      -0.005800
     21 CAV         -3.4530     1.1760    -2.7190 cf         1 1DE       0.078900
     22 OAE         -4.0970     2.1530    -3.3990 oh         1 1DE      -0.473100
     23 CAW         -3.4340    -0.2520    -3.0900 c          1 1DE       0.655700
     24 OAC         -3.9960    -0.7310    -4.0560 o          1 1DE      -0.574500
     25 NBH         -2.7010    -0.9490    -2.2010 n          1 1DE      -0.352000
     26 CBC         -2.4600    -2.3250    -2.2310 ca         1 1DE       0.025600
     27 CAN         -2.9950    -3.1000    -3.2480 ca         1 1DE      -0.124000
     28 CAJ         -1.6790    -2.9160    -1.2440 ca         1 1DE      -0.190000
     29 CAH         -1.4390    -4.2770    -1.2690 ca         1 1DE      -0.142000
     30 CAI         -1.9720    -5.0590    -2.2750 ca         1 1DE      -0.106000
     31 CBA         -2.7520    -4.4740    -3.2740 ca         1 1DE      -0.079600
     32 CAT         -3.3180    -5.3080    -4.3550 c          1 1DE       0.881200
     33 OAD         -3.9960    -4.7960    -5.2240 o          1 1DE      -0.828800
     34 OAA         -3.0820    -6.6340    -4.3770 o          1 1DE      -0.828800
     35 H1          -0.5420    -0.0000     0.9380 ha         1 1DE       0.144000
     36 H2           3.6320    -1.4890     0.4860 h2         1 1DE       0.070700
     37 H3           4.3590     0.1150     0.9050 h2         1 1DE       0.070700
     38 H4          -0.5500     0.0020    -3.3320 ha         1 1DE       0.172000
     39 H5          -2.5730    -0.2750    -0.2140 h1         1 1DE       0.080700
     40 H6          -2.4300     4.8720     0.8220 ha         1 1DE       0.172000
     41 H7          -3.5290     4.7220     3.1190 ha         1 1DE       0.159000
     42 H8          -5.0220     1.9700    -3.4130 ho         1 1DE       0.436000
     43 H9          -3.6000    -2.6410    -4.0210 ha         1 1DE       0.192000
     44 H10         -1.2580    -2.3080    -0.4530 ha         1 1DE       0.106000
     45 H11         -0.8320    -4.7320    -0.4960 ha         1 1DE       0.110000
     46 H12         -1.7810    -6.1260    -2.2910 ha         1 1DE       0.158000
@<TRIPOS>BOND
     1     4     3 1   
     2     4     5 1   
     3    19    18 1   
     4     3     2 1   
     5    17    18 2   
     6    17    16 1   
     7     5     6 1   
     8    18    20 1   
     9    16    15 2   
    10     2     6 ar  
    11     2     1 ar  
    12     6     7 ar  
    13    20    15 1   
    14    15    13 1   
    15     1    10 ar  
    16     7     8 1   
    17     7     9 ar  
    18    13    14 2   
    19    13    12 1   
    20    22    21 1   
    21    10     9 ar  
    22    10    11 1   
    23    12    21 2   
    24    12    11 1   
    25    21    23 1   
    26    11    25 1   
    27    23    24 2   
    28    23    25 1   
    29    33    32 1   
    30    25    26 1   
    31    27    26 ar  
    32    27    31 ar  
    33    26    28 ar  
    34    32    31 1   
    35    32    34 1   
    36    31    30 ar  
    37    28    29 ar  
    38    30    29 ar  
    39     1    35 1   
    40     4    36 1   
    41     4    37 1   
    42     9    38 1   
    43    11    39 1   
    44    16    40 1   
    45    17    41 1   
    46    22    42 1   
    47    27    43 1   
    48    28    44 1   
    49    29    45 1   
    50    30    46 1   
@<TRIPOS>SUBSTRUCTURE
     1 1DE         1 TEMP              0 ****  ****    0 ROOT
