@<TRIPOS>MOLECULE
1DF
   21    21     1     0     0
SMALL
bcc


@<TRIPOS>ATOM
      1 C1          -0.0060     0.0430     0.0140 ca         1 1DF      -0.152600
      2 CO1          1.3850    -0.0340    -0.0050 ca         1 1DF      -0.035000
      3 CO2         -0.6910     0.0780     1.2310 ca         1 1DF      -0.078000
      4 CM1          2.1140    -0.0620     1.2000 ca         1 1DF      -0.215200
      5 CM2          0.0200     0.0470     2.4290 ca         1 1DF      -0.018900
      6 OM          -0.5720     0.0380     3.6910 os         1 1DF      -0.361900
      7 CZ           1.4300    -0.0180     2.4380 ca         1 1DF       0.150100
      8 CC          -0.8030     0.0940    -1.2900 c          1 1DF       0.916200
      9 CV          -1.8540     0.6550     3.7450 c3         1 1DF       0.122700
     10 O1          -0.1610     0.0360    -2.3710 o          1 1DF      -0.816300
     11 O2          -2.0570     0.1960    -1.1890 o          1 1DF      -0.816300
     12 O3           2.1520    -0.0610     3.6020 oh         1 1DF      -0.471100
     13 N            3.5880    -0.1330     1.1580 no         1 1DF       0.323200
     14 O11          4.2260    -0.0500     2.1750 o          1 1DF      -0.231000
     15 O22          4.1390    -0.2690     0.0940 o          1 1DF      -0.231000
     16 H1           1.8990    -0.0690    -0.9850 ha         1 1DF       0.194000
     17 H2          -1.7930     0.1350     1.2060 ha         1 1DF       0.174000
     18 H3          -2.6170    -0.0130     3.2760 h1         1 1DF       0.040700
     19 H4          -1.8450     1.6490     3.2370 h1         1 1DF       0.040700
     20 H5          -2.0500     0.7680     4.8410 h1         1 1DF       0.040700
     21 H7           1.5280     0.0350     4.3390 ho         1 1DF       0.427000
@<TRIPOS>BOND
     1     1     2 ar  
     2     1     3 ar  
     3     1     8 1   
     4     2     4 ar  
     5     2    16 1   
     6     3     5 ar  
     7     3    17 1   
     8     4     7 ar  
     9     4    13 1   
    10     5     6 1   
    11     5     7 ar  
    12     6     9 1   
    13     7    12 1   
    14     8    10 1   
    15     8    11 1   
    16     9    18 1   
    17     9    19 1   
    18     9    20 1   
    19    12    21 1   
    20    13    14 1   
    21    13    15 1   
@<TRIPOS>SUBSTRUCTURE
     1 1DF         1 TEMP              0 ****  ****    0 ROOT
