@<TRIPOS>MOLECULE
molecule
   21    21     1     0     0
SMALL
bcc


@<TRIPOS>ATOM
      1 C1           0.0000     0.0000     0.0000 ca         1 1DF      -0.081600
      2 CO1          1.3970     0.0000     0.0000 ca         1 1DF      -0.058000
      3 CO2         -0.6960     0.0060     1.2130 ca         1 1DF      -0.144000
      4 CM1          2.0860     0.0000     1.1930 ca         1 1DF      -0.173200
      5 CM2          0.0020     0.0110     2.4050 ca         1 1DF       0.066100
      6 OM          -0.6720     0.0100     3.5870 os         1 1DF      -0.336900
      7 CZ           1.3950    -0.0000     2.3970 ca         1 1DF       0.104100
      8 CC          -0.7390     0.0000    -1.2760 c          1 1DF       0.880200
      9 CV          -2.1000     0.0220     3.5200 c3         1 1DF       0.129700
     10 O1          -0.0670     0.0000    -2.4440 o          1 1DF      -0.820800
     11 O2          -1.9540    -0.0000    -1.2740 o          1 1DF      -0.820800
     12 O3           2.0790     0.0050     3.5700 oh         1 1DF      -0.493100
     13 N            3.5670    -0.0000     1.1910 no         1 1DF       0.301200
     14 O11          4.1770     0.0000     2.2450 o          1 1DF      -0.223500
     15 O22          4.1750    -0.0000     0.1350 o          1 1DF      -0.223500
     16 H1           1.9390    -0.0020    -0.9380 ha         1 1DF       0.194000
     17 H2          -1.7790     0.0060     1.2180 ha         1 1DF       0.165000
     18 H3          -2.4290     0.9080     2.9890 h1         1 1DF       0.040033
     19 H4          -2.5080     0.0290     4.5230 h1         1 1DF       0.040033
     20 H5          -2.4440    -0.8610     2.9960 h1         1 1DF       0.040033
     21 H7           2.0360    -0.8510     3.9630 ho         1 1DF       0.415000
@<TRIPOS>BOND
     1     9     6 1   
     2     6     5 1   
     3     5     7 ar  
     4     5     3 ar  
     5    12     7 1   
     6     7     4 ar  
     7     3     1 ar  
     8    11     8 1   
     9     4    13 1   
    10     4     2 ar  
    11    14    13 1   
    12     1     2 ar  
    13     1     8 1   
    14    13    15 1   
    15     8    10 1   
    16     2    16 1   
    17     3    17 1   
    18     9    18 1   
    19     9    19 1   
    20     9    20 1   
    21    12    21 1   
@<TRIPOS>SUBSTRUCTURE
     1 1DF         1 TEMP              0 ****  ****    0 ROOT
