@<TRIPOS>MOLECULE
1DH
   10    10     1     0     0
SMALL
bcc


@<TRIPOS>ATOM
      1 NAD         -0.0310    -0.0570    -0.0540 nc         1 1DH      -0.688000
      2 CAC          1.3450    -0.0480    -0.0120 cc         1 1DH       0.370200
      3 CAG          1.9110     0.0110     1.2570 cd         1 1DH      -0.140000
      4 ClG          3.5430     0.0700     1.5860 cl         1 1DH      -0.017400
      5 SAE          0.7070     0.0210     2.4410 ss         1 1DH      -0.097300
      6 CAF         -0.5240    -0.0260     1.2060 cd         1 1DH       0.606300
      7 NAA         -1.8660    -0.1440     1.5640 nv         1 1DH      -0.888500
      8 H1           1.8970    -0.0750    -0.9610 h4         1 1DH       0.053100
      9 H2          -2.1570     0.5620     2.2080 hn         1 1DH       0.400800
     10 H3          -2.4930    -0.2310     0.7880 hn         1 1DH       0.400800
@<TRIPOS>BOND
     1     1     2 1   
     2     1     6 2   
     3     2     3 2   
     4     2     8 1   
     5     3     4 1   
     6     3     5 1   
     7     5     6 1   
     8     6     7 1   
     9     7     9 1   
    10     7    10 1   
@<TRIPOS>SUBSTRUCTURE
     1 1DH         1 TEMP              0 ****  ****    0 ROOT
