@<TRIPOS>MOLECULE
molecule
   10    10     1     0     0
SMALL
bcc


@<TRIPOS>ATOM
      1 NAD          0.0000     0.0000     0.0000 nc         1 1DH      -0.768000
      2 CAC          1.3220     0.0000     0.0000 cc         1 1DH       0.426200
      3 CAG          1.8760     0.0000     1.2130 cd         1 1DH      -0.087000
      4 ClG          3.5790    -0.0000     1.5560 cl         1 1DH      -0.049400
      5 SAE          0.5810     0.0000     2.4070 ss         1 1DH      -0.214300
      6 CAF         -0.5850     0.0000     1.1570 cd         1 1DH       0.727300
      7 NAA         -1.9580     0.0000     1.3520 nv         1 1DH      -0.987500
      8 H1           1.9070     0.0000    -0.9110 h4         1 1DH       0.052100
      9 H2          -2.5750    -0.0000     0.5640 hn         1 1DH       0.450300
     10 H3          -2.3320     0.0000     2.2800 hn         1 1DH       0.450300
@<TRIPOS>BOND
     1     5     6 1   
     2     5     3 1   
     3     7     6 1   
     4     6     1 2   
     5     4     3 1   
     6     3     2 2   
     7     1     2 1   
     8     2     8 1   
     9     7     9 1   
    10     7    10 1   
@<TRIPOS>SUBSTRUCTURE
     1 1DH         1 TEMP              0 ****  ****    0 ROOT
