@<TRIPOS>MOLECULE
1DI
   39    41     1     0     0
SMALL
bcc


@<TRIPOS>ATOM
      1 N1           0.0860     0.2800     0.0440 nz         1 1DI      -0.851600
      2 C2           1.5820     0.1910     0.0010 c3         1 1DI       0.048500
      3 C3           2.1970     0.2250     1.4080 c3         1 1DI      -0.051100
      4 C4           1.5980     1.2270     2.3290 ca         1 1DI      -0.141300
      5 C5           2.2170     2.4730     2.4900 ca         1 1DI      -0.080000
      6 C6           1.7290     3.4090     3.4000 ca         1 1DI      -0.104000
      7 C7           0.6070     3.1020     4.1780 ca         1 1DI       0.042400
      8 Cl8          0.0140     4.2220     5.2920 cl         1 1DI      -0.022400
      9 C9          -0.0290     1.8610     4.0380 ca         1 1DI      -0.104000
     10 C10          0.4660     0.9430     3.1120 ca         1 1DI      -0.005600
     11 Cl11        -0.3460    -0.5590     2.9610 cl         1 1DI      -0.090400
     12 C12          2.1320     1.3490    -0.8780 c          1 1DI       0.641100
     13 O13          1.4010     2.3480    -1.0650 o          1 1DI      -0.609100
     14 N14          3.3910     1.2530    -1.3730 n          1 1DI      -0.440800
     15 C15          4.2230     0.0460    -1.3890 c3         1 1DI       0.140300
     16 C16          5.3520     0.3700    -2.3300 ca         1 1DI      -0.118300
     17 C17          6.4260    -0.4110    -2.7120 ca         1 1DI      -0.092000
     18 C18          7.3510     0.1340    -3.6160 ca         1 1DI      -0.110000
     19 C19          7.1910     1.4250    -4.1130 ca         1 1DI      -0.110000
     20 C20          6.1010     2.2190    -3.7240 ca         1 1DI      -0.092000
     21 C21          5.1890     1.6840    -2.8340 ca         1 1DI      -0.118300
     22 C22          3.9480     2.2990    -2.2510 c3         1 1DI       0.140300
     23 HN1         -0.1820     1.2790     0.0670 hn         1 1DI       0.470800
     24 HN1A        -0.3170    -0.1450    -0.7910 hn         1 1DI       0.470800
     25 H2           1.8420    -0.8010    -0.4790 hx         1 1DI       0.114700
     26 H3           2.1130    -0.8030     1.8610 hc         1 1DI       0.098700
     27 H3A          3.2980     0.4360     1.2900 hc         1 1DI       0.098700
     28 H5           3.1090     2.7200     1.8900 ha         1 1DI       0.157000
     29 H6           2.2330     4.3840     3.5090 ha         1 1DI       0.176000
     30 H9          -0.9070     1.6130     4.6590 ha         1 1DI       0.182000
     31 H15          3.6370    -0.8420    -1.7540 h1         1 1DI       0.071700
     32 H17          6.5620    -1.4310    -2.3250 ha         1 1DI       0.148500
     33 H18          8.2140    -0.4720    -3.9330 ha         1 1DI       0.152500
     34 H19          7.9290     1.8340    -4.8220 ha         1 1DI       0.152500
     35 H20          5.9840     3.2380    -4.1220 ha         1 1DI       0.148500
     36 H22          4.1810     3.2100    -1.6330 h1         1 1DI       0.071700
     37 H151         4.6060    -0.1680    -0.3520 h1         1 1DI       0.071700
     38 H16          3.1990     2.5810    -3.0420 h1         1 1DI       0.071700
     39 H13         -0.2680    -0.1910     0.9030 hn         1 1DI       0.470800
@<TRIPOS>BOND
     1     1     2 1   
     2     1    23 1   
     3     1    24 1   
     4     1    39 1   
     5     2     3 1   
     6     2    12 1   
     7     2    25 1   
     8     3     4 1   
     9     3    26 1   
    10     3    27 1   
    11     4     5 ar  
    12     4    10 ar  
    13     5     6 ar  
    14     5    28 1   
    15     6     7 ar  
    16     6    29 1   
    17     7     8 1   
    18     7     9 ar  
    19     9    10 ar  
    20     9    30 1   
    21    10    11 1   
    22    12    13 2   
    23    12    14 1   
    24    14    15 1   
    25    14    22 1   
    26    15    16 1   
    27    15    31 1   
    28    15    37 1   
    29    16    17 ar  
    30    16    21 ar  
    31    17    18 ar  
    32    17    32 1   
    33    18    19 ar  
    34    18    33 1   
    35    19    20 ar  
    36    19    34 1   
    37    20    21 ar  
    38    20    35 1   
    39    21    22 1   
    40    22    36 1   
    41    22    38 1   
@<TRIPOS>SUBSTRUCTURE
     1 1DI         1 TEMP              0 ****  ****    0 ROOT
