@<TRIPOS>MOLECULE
1DI
   39    41     1     0     0
SMALL
bcc


@<TRIPOS>ATOM
      1 N1           0.0000     0.0000     0.0000 nz         1 1DI      -0.047600
      2 C2           1.4700     0.0000     0.0000 c3         1 1DI      -0.128500
      3 C3           1.9790     0.0000     1.4420 c3         1 1DI       0.025900
      4 C4           1.5810    -1.2880     2.1150 ca         1 1DI      -0.157300
      5 C5           2.4990    -2.3140     2.2430 ca         1 1DI      -0.052000
      6 C6           2.1350    -3.4960     2.8610 ca         1 1DI      -0.063000
      7 C7           0.8510    -3.6520     3.3530 ca         1 1DI      -0.025600
      8 Cl8          0.3940    -5.1360     4.1280 cl         1 1DI       0.060600
      9 C9          -0.0680    -2.6260     3.2250 ca         1 1DI      -0.064000
     10 C10          0.2990    -1.4420     2.6120 ca         1 1DI      -0.075600
     11 Cl11        -0.8520    -0.1510     2.4580 cl         1 1DI       0.000600
     12 C12          1.9700     1.2310    -0.7110 c          1 1DI       0.577100
     13 O13          1.2420     2.1910    -0.8490 o          1 1DI      -0.640100
     14 N14          3.2300     1.2660    -1.1920 n          1 1DI      -0.091800
     15 C15          3.8640     2.3810    -1.9020 c3         1 1DI       0.113300
     16 C16          5.2710     1.9660    -2.2460 ca         1 1DI      -0.128800
     17 C17          6.2850     2.6370    -2.9070 ca         1 1DI      -0.057500
     18 C18          7.5080     2.0280    -3.1010 ca         1 1DI      -0.076000
     19 C19          7.7230     0.7440    -2.6340 ca         1 1DI      -0.076000
     20 C20          6.7120     0.0730    -1.9730 ca         1 1DI      -0.057500
     21 C21          5.4840     0.6840    -1.7790 ca         1 1DI      -0.128800
     22 C22          4.2300     0.1970    -1.0990 c3         1 1DI       0.113300
     23 HN1         -0.3340     0.7190     0.6110 hn         1 1DI       0.256800
     24 HN1A        -0.3340     0.1690    -0.9280 hn         1 1DI       0.256800
     25 H2           1.8310    -0.8840    -0.5110 hx         1 1DI       0.093700
     26 H3           3.0590     0.0900     1.4430 hc         1 1DI       0.064200
     27 H3A          1.5460     0.8360     1.9780 hc         1 1DI       0.064200
     28 H5           3.5040    -2.1910     1.8580 ha         1 1DI       0.121000
     29 H6           2.8550    -4.2990     2.9600 ha         1 1DI       0.136000
     30 H9          -1.0720    -2.7470     3.6120 ha         1 1DI       0.142000
     31 H15          3.8980     3.2440    -1.2490 h1         1 1DI       0.032200
     32 H17          6.1180     3.6430    -3.2730 ha         1 1DI       0.110500
     33 H18          8.3000     2.5550    -3.6190 ha         1 1DI       0.118000
     34 H19          8.6830     0.2650    -2.7860 ha         1 1DI       0.118000
     35 H20          6.8800    -0.9330    -1.6080 ha         1 1DI       0.110500
     36 H22          3.8640    -0.6920    -1.5990 h1         1 1DI       0.032200
     37 H151         3.3170     2.5750    -2.8170 h1         1 1DI       0.032200
     38 H16          4.4380    -0.0200    -0.0580 h1         1 1DI       0.032200
     39 H13         -0.3340    -0.7310     0.5960 hn         1 1DI       0.256800
@<TRIPOS>BOND
     1     1     2 1   
     2     1    23 1   
     3     1    24 1   
     4     1    39 1   
     5     2     3 1   
     6     2    12 1   
     7     2    25 1   
     8     3     4 1   
     9     3    26 1   
    10     3    27 1   
    11     4     5 ar  
    12     4    10 ar  
    13     5     6 ar  
    14     5    28 1   
    15     6     7 ar  
    16     6    29 1   
    17     7     8 1   
    18     7     9 ar  
    19     9    10 ar  
    20     9    30 1   
    21    10    11 1   
    22    12    13 2   
    23    12    14 1   
    24    14    15 1   
    25    14    22 1   
    26    15    16 1   
    27    15    31 1   
    28    15    37 1   
    29    16    17 ar  
    30    16    21 ar  
    31    17    18 ar  
    32    17    32 1   
    33    18    19 ar  
    34    18    33 1   
    35    19    20 ar  
    36    19    34 1   
    37    20    21 ar  
    38    20    35 1   
    39    21    22 1   
    40    22    36 1   
    41    22    38 1   
@<TRIPOS>SUBSTRUCTURE
     1 1DI         1 TEMP              0 ****  ****    0 ROOT
