@<TRIPOS>MOLECULE
1DJ
   18    18     1     0     0
SMALL
bcc


@<TRIPOS>ATOM
      1 CAG          0.0300    -0.0700     0.0100 ca         1 1DJ      -0.106000
      2 CAE          1.4240    -0.0700    -0.0100 ca         1 1DJ      -0.134500
      3 CAD          2.1410     0.0590     1.1800 ca         1 1DJ      -0.124000
      4 CAF          1.4620     0.1870     2.3910 ca         1 1DJ      -0.134500
      5 CAH          0.0680     0.1830     2.4170 ca         1 1DJ      -0.106000
      6 CAI         -0.6520     0.0530     1.2260 ca         1 1DJ      -0.084300
      7 CAJ         -2.1580     0.0480     1.2230 c3         1 1DJ       0.276500
      8 OAB         -2.6010     0.7560     2.3800 oh         1 1DJ      -0.589800
      9 CAC         -2.6850    -1.3020     1.1840 c1         1 1DJ      -0.185100
     10 CAA         -3.1160    -2.4170     1.1340 c1         1 1DJ      -0.119500
     11 H1          -0.5330    -0.1700    -0.9300 ha         1 1DJ       0.141000
     12 H2           1.9570    -0.1690    -0.9670 ha         1 1DJ       0.132000
     13 H3           3.2400     0.0610     1.1610 ha         1 1DJ       0.131000
     14 H4           2.0250     0.2920     3.3300 ha         1 1DJ       0.132000
     15 H5          -0.4750     0.2910     3.3690 ha         1 1DJ       0.141000
     16 H6          -2.5290     0.6040     0.3060 h1         1 1DJ       0.055700
     17 H7          -3.5570     0.6370     2.4330 ho         1 1DJ       0.409000
     18 H8          -3.4990    -3.4050     1.0900 ha         1 1DJ       0.166500
@<TRIPOS>BOND
     1     1     2 ar  
     2     1     6 ar  
     3     1    11 1   
     4     2     3 ar  
     5     2    12 1   
     6     3     4 ar  
     7     3    13 1   
     8     4     5 ar  
     9     4    14 1   
    10     5     6 ar  
    11     5    15 1   
    12     6     7 1   
    13     7     8 1   
    14     7     9 1   
    15     7    16 1   
    16     8    17 1   
    17     9    10 3   
    18    10    18 1   
@<TRIPOS>SUBSTRUCTURE
     1 1DJ         1 TEMP              0 ****  ****    0 ROOT
