@<TRIPOS>MOLECULE
molecule
   18    18     1     0     0
SMALL
bcc


@<TRIPOS>ATOM
      1 CAG          0.0000     0.0000     0.0000 ca         1 1DJ      -0.117000
      2 CAE          1.3820     0.0000     0.0000 ca         1 1DJ      -0.134500
      3 CAD          2.0740     0.0000     1.1970 ca         1 1DJ      -0.092000
      4 CAF          1.3830    -0.0000     2.3950 ca         1 1DJ      -0.134500
      5 CAH          0.0010    -0.0000     2.3950 ca         1 1DJ      -0.117000
      6 CAI         -0.6910    -0.0000     1.1980 ca         1 1DJ      -0.101300
      7 CAJ         -2.1970    -0.0010     1.1980 c3         1 1DJ       0.335500
      8 OAB         -2.6740     0.8650     2.2300 oh         1 1DJ      -0.680800
      9 CAC         -2.6880    -1.3680     1.4390 c1         1 1DJ      -0.174100
     10 CAA         -3.0810    -2.4600     1.6110 c1         1 1DJ      -0.127500
     11 H1          -0.7340    -0.2910    -0.7420 ha         1 1DJ       0.139000
     12 H2           1.7920    -0.2020    -0.9820 ha         1 1DJ       0.139000
     13 H3           3.1540    -0.0330     1.2800 ha         1 1DJ       0.132000
     14 H4           1.5740     0.2680     3.4270 ha         1 1DJ       0.139000
     15 H5          -0.4460     0.1000     3.3770 ha         1 1DJ       0.139000
     16 H6          -2.5590     0.3480     0.2380 h1         1 1DJ       0.041700
     17 H7          -3.4800     1.3490     2.2970 ho         1 1DJ       0.448000
     18 H8          -3.5810    -3.1440     2.2860 ha         1 1DJ       0.166500
@<TRIPOS>BOND
     1    10     9 3   
     2     9     7 1   
     3     1     2 ar  
     4     1     6 ar  
     5     2     3 ar  
     6     7     6 1   
     7     7     8 1   
     8     6     5 ar  
     9     3     4 ar  
    10     5     4 ar  
    11     1    11 1   
    12     2    12 1   
    13     3    13 1   
    14     4    14 1   
    15     5    15 1   
    16     7    16 1   
    17     8    17 1   
    18    10    18 1   
@<TRIPOS>SUBSTRUCTURE
     1 1DJ         1 TEMP              0 ****  ****    0 ROOT
