@<TRIPOS>MOLECULE
1DJ
   18    18     1     0     0
SMALL
bcc


@<TRIPOS>ATOM
      1 CAG         0.0280    0.1310    0.0140 ca        1 1DJ     -0.112500
      2 CAE         1.4210    0.1880    0.0660 ca        1 1DJ     -0.129000
      3 CAD         2.0840    0.0110    1.2790 ca        1 1DJ     -0.122000
      4 CAF         1.3540   -0.2260    2.4440 ca        1 1DJ     -0.129000
      5 CAH        -0.0380   -0.2860    2.3950 ca        1 1DJ     -0.112500
      6 CAI        -0.7070   -0.1070    1.1790 ca        1 1DJ     -0.114300
      7 CAJ        -2.2120   -0.1580    1.1170 c3        1 1DJ      0.271500
      8 OAB        -2.8020    0.8590    1.9170 oh        1 1DJ     -0.580800
      9 CAC        -2.7030   -1.4740    1.4760 c1        1 1DJ     -0.179100
     10 CAA        -3.1180   -2.5630    1.7430 c1        1 1DJ     -0.123500
     11 H1         -0.4910    0.2750   -0.9450 ha        1 1DJ      0.132500
     12 H2          1.9950    0.3740   -0.8540 ha        1 1DJ      0.134000
     13 H3          3.1830    0.0580    1.3180 ha        1 1DJ      0.133000
     14 H4          1.8750   -0.3670    3.4020 ha        1 1DJ      0.134000
     15 H5         -0.6130   -0.4820    3.3120 ha        1 1DJ      0.132500
     16 H6         -2.5690    0.0980    0.0710 h1        1 1DJ      0.095700
     17 H7         -2.5040    0.7290    2.8260 ho        1 1DJ      0.404000
     18 H8         -3.4860   -3.5290    1.9800 ha        1 1DJ      0.165500
@<TRIPOS>BOND
     1    1    2 ar  
     2    1    6 ar  
     3    1   11 1   
     4    2    3 ar  
     5    2   12 1   
     6    3    4 ar  
     7    3   13 1   
     8    4    5 ar  
     9    4   14 1   
    10    5    6 ar  
    11    5   15 1   
    12    6    7 1   
    13    7    8 1   
    14    7    9 1   
    15    7   16 1   
    16    8   17 1   
    17    9   10 3   
    18   10   18 1   
@<TRIPOS>SUBSTRUCTURE
     1 1DJ         1 TEMP              0 ****  ****    0 ROOT
