@<TRIPOS>MOLECULE
molecule
   55    58     1     0     0
SMALL
bcc


@<TRIPOS>ATOM
      1 CAC          0.0000     0.0000     0.0000 c3         1 1DK      -0.072800
      2 CBA          1.5070     0.0000     0.0000 ca         1 1DK      -0.040300
      3 CAP          2.1980     0.0000     1.1970 ca         1 1DK      -0.124000
      4 CAY          3.5810    -0.0000     1.1970 ca         1 1DK      -0.071300
      5 CAA          4.3340    -0.0000     2.5020 c3         1 1DK      -0.045800
      6 CAZ          4.2720    -0.0010     0.0000 ca         1 1DK      -0.091300
      7 CAB          5.7790    -0.0020    -0.0010 c3         1 1DK      -0.042800
      8 CAQ          3.5800    -0.0010    -1.1970 ca         1 1DK      -0.105000
      9 CBE          2.1980    -0.0050    -1.1970 ca         1 1DK      -0.105300
     10 CBF          1.4450    -0.0050    -2.5020 c3         1 1DK       0.197200
     11 CAX          0.6390    -1.2770    -2.6370 ce         1 1DK      -0.240400
     12 CAU          1.1640    -2.6470    -2.6650 c          1 1DK       0.639900
     13 OAE          0.4740    -3.5730    -2.2780 o          1 1DK      -0.507100
     14 CBC          2.5210    -2.9020    -3.1600 cd         1 1DK      -0.138700
     15 CAK          3.1760    -4.1030    -3.0990 cc         1 1DK      -0.086000
     16 CAI          4.4390    -4.0590    -3.6380 cc         1 1DK      -0.179000
     17 CAJ          4.8090    -2.8670    -4.1240 cd         1 1DK      -0.104100
     18 SAS          3.5650    -1.7170    -3.9320 ss         1 1DK      -0.048800
     19 CAW         -0.6600    -0.9090    -2.7270 cf         1 1DK       0.084900
     20 OAG         -1.7070    -1.7550    -2.8600 oh         1 1DK      -0.470100
     21 CAV         -0.7530     0.5630    -2.6570 c          1 1DK       0.662700
     22 OAF         -1.7870     1.1990    -2.7100 o          1 1DK      -0.612500
     23 NBG          0.4750     1.0960    -2.5250 n          1 1DK      -0.342000
     24 CBD          0.7740     2.4580    -2.4270 ca         1 1DK       0.025600
     25 CAO          2.0940     2.8730    -2.2990 ca         1 1DK      -0.158000
     26 CAM          2.3870     4.2200    -2.2030 ca         1 1DK      -0.104000
     27 CAN         -0.2470     3.3990    -2.4630 ca         1 1DK      -0.158000
     28 CAL          0.0530     4.7440    -2.3650 ca         1 1DK      -0.104000
     29 CBB          1.3670     5.1540    -2.2320 ca         1 1DK      -0.013300
     30 CAR          1.6890     6.6210    -2.1250 c3         1 1DK      -0.155100
     31 CAT          1.9100     7.1890    -3.5040 c          1 1DK       0.893600
     32 OAH          1.8150     6.4750    -4.4740 o          1 1DK      -0.843300
     33 OAD          2.2120     8.4880    -3.6540 o          1 1DK      -0.843300
     34 H1          -0.3610    -0.8280    -0.5980 hc         1 1DK       0.055367
     35 H2          -0.3610    -0.1040     1.0160 hc         1 1DK       0.055367
     36 H3          -0.3610     0.9320    -0.4180 hc         1 1DK       0.055367
     37 H4           1.6560     0.0020     2.1350 ha         1 1DK       0.132000
     38 H5           4.9010    -0.9190     2.5920 hc         1 1DK       0.040700
     39 H6           3.6320     0.0730     3.3240 hc         1 1DK       0.040700
     40 H7           5.0110     0.8450     2.5290 hc         1 1DK       0.040700
     41 H8           6.1390     0.1510    -1.0110 hc         1 1DK       0.040367
     42 H9           6.1410     0.7960     0.6370 hc         1 1DK       0.040367
     43 H10          6.1390    -0.9530     0.3710 hc         1 1DK       0.040367
     44 H11          4.1210     0.0400    -2.1350 ha         1 1DK       0.134000
     45 H12          2.7420    -4.9970    -2.6700 ha         1 1DK       0.165000
     46 H13          5.0880    -4.9260    -3.6680 ha         1 1DK       0.145000
     47 H14          5.7710    -2.6610    -4.5780 h4         1 1DK       0.171000
     48 H16         -2.0980    -1.6420    -3.7100 ho         1 1DK       0.434000
     49 H17          2.8930     2.1410    -2.2750 ha         1 1DK       0.138000
     50 H18          3.4150     4.5440    -2.1000 ha         1 1DK       0.134500
     51 H19         -1.2760     3.0780    -2.5670 ha         1 1DK       0.138000
     52 H20         -0.7430     5.4780    -2.3900 ha         1 1DK       0.134500
     53 H21          0.8650     7.1390    -1.6500 hc         1 1DK       0.040700
     54 H22          2.5870     6.7520    -1.5330 hc         1 1DK       0.040700
     55 H24          2.1310     0.0880    -3.3350 h1         1 1DK       0.084700
@<TRIPOS>BOND
     1     7     6 1
     2    16    17 2
     3    16    15 1
     4     5     4 1
     5    17    18 1
     6     6     4 ar
     7     6     8 ar
     8    15    14 2
     9     4     3 ar
    10    18    14 1
    11    14    12 1
    12     8     9 ar
    13     3     2 ar
    14    12    13 2
    15    12    11 1
    16     9     2 ar
    17     9    10 1
    18     2     1 1
    19    11    10 1
    20    11    19 2
    21    10    23 1
    22    25    26 ar
    23    25    24 ar
    24    19    20 1
    25    19    21 1
    26    23    24 1
    27    23    21 1
    28    26    29 ar
    29    24    27 ar
    30    21    22 2
    31    29    28 ar
    32    29    30 1
    33    27    28 ar
    34    30    31 1
    35    31    32 1
    36    31    33 1
    37     1    34 1
    38     1    35 1
    39     1    36 1
    40     3    37 1
    41     5    38 1
    42     5    39 1
    43     5    40 1
    44     7    41 1
    45     7    42 1
    46     7    43 1
    47     8    44 1
    48    15    45 1
    49    16    46 1
    50    17    47 1
    51    20    48 1
    52    25    49 1
    53    26    50 1
    54    27    51 1
    55    28    52 1
    56    30    53 1
    57    30    54 1
    58    10    55 1
@<TRIPOS>SUBSTRUCTURE
     1 1DK         1 TEMP              0 ****  ****    0 ROOT
