@<TRIPOS>MOLECULE
1DK
   55    58     1     0     0
SMALL
bcc


@<TRIPOS>ATOM
      1 CAC         -0.1150     0.0710    -0.2090 c3         1 1DK      -0.074800
      2 CBA          1.3650     0.1650    -0.2050 ca         1 1DK      -0.049300
      3 CAP          2.0230     0.4230     1.0030 ca         1 1DK      -0.132000
      4 CAY          3.4140     0.5150     1.0730 ca         1 1DK      -0.067300
      5 CAA          4.0820     0.7750     2.3700 c3         1 1DK      -0.050800
      6 CAZ          4.1750     0.3500    -0.0970 ca         1 1DK      -0.089300
      7 CAB          5.6520     0.4340    -0.0510 c3         1 1DK      -0.047800
      8 CAQ          3.5220     0.0970    -1.3060 ca         1 1DK      -0.089000
      9 CBE          2.1290     0.0000    -1.3740 ca         1 1DK      -0.095300
     10 CBF          1.4570    -0.2650    -2.6960 c3         1 1DK       0.201200
     11 CAX          1.5020     0.9910    -3.5870 ce         1 1DK      -0.235400
     12 CAU          0.8620     2.2340    -3.1470 c          1 1DK       0.656900
     13 OAE         -0.3210     2.2350    -2.7710 o          1 1DK      -0.545100
     14 CBC          1.6660     3.4540    -3.1420 cc         1 1DK      -0.203700
     15 CAK          2.9280     3.6080    -3.6990 cd         1 1DK      -0.090000
     16 CAI          3.4340     4.9250    -3.5070 cd         1 1DK      -0.175000
     17 CAJ          2.5370     5.7120    -2.8090 cc         1 1DK      -0.182100
     18 SAS          1.1560     4.8880    -2.4200 ss         1 1DK       0.109200
     19 CAW          2.1150     0.6620    -4.7490 cf         1 1DK       0.046900
     20 OAG          2.3640     1.4470    -5.8270 oh         1 1DK      -0.471100
     21 CAV          2.4910    -0.8100    -4.7400 c          1 1DK       0.668700
     22 OAF          3.0610    -1.3540    -5.7000 o          1 1DK      -0.631500
     23 NBG          2.1000    -1.3240    -3.5110 n          1 1DK      -0.338000
     24 CBD          2.0000    -2.6940    -3.1650 ca         1 1DK       0.012600
     25 CAO          2.4450    -3.7010    -4.0450 ca         1 1DK      -0.161000
     26 CAM          2.3450    -5.0420    -3.6800 ca         1 1DK      -0.122500
     27 CAN          1.4510    -3.0800    -1.9210 ca         1 1DK      -0.161000
     28 CAL          1.3610    -4.4200    -1.5750 ca         1 1DK      -0.122500
     29 CBB          1.8100    -5.4250    -2.4460 ca         1 1DK      -0.019300
     30 CAR          1.7370    -6.8500    -2.0520 c3         1 1DK      -0.177100
     31 CAT          0.3760    -7.2540    -1.4320 c          1 1DK       0.918600
     32 OAH         -0.3050    -8.1210    -2.0450 o          1 1DK      -0.838800
     33 OAD          0.0400    -6.7270    -0.3330 o          1 1DK      -0.838800
     34 H1          -0.5530     0.7810    -0.9570 hc         1 1DK       0.056367
     35 H2          -0.4410    -0.9680    -0.4700 hc         1 1DK       0.056367
     36 H3          -0.5360     0.3210     0.7960 hc         1 1DK       0.056367
     37 H4           1.4280     0.5460     1.9220 ha         1 1DK       0.130000
     38 H5           4.7530    -0.0810     2.6340 hc         1 1DK       0.041033
     39 H6           3.3380     0.9080     3.1930 hc         1 1DK       0.041033
     40 H7           4.7090     1.7000     2.3050 hc         1 1DK       0.041033
     41 H8           6.1020     0.2680    -1.0600 hc         1 1DK       0.040367
     42 H9           6.0610    -0.3380     0.6490 hc         1 1DK       0.040367
     43 H10          5.9730     1.4410     0.3190 hc         1 1DK       0.040367
     44 H11          4.1230    -0.0390    -2.2190 ha         1 1DK       0.137000
     45 H12          3.4690     2.8240    -4.2380 ha         1 1DK       0.169000
     46 H13          4.4100     5.2510    -3.8700 ha         1 1DK       0.152000
     47 H14          2.7040     6.7540    -2.5370 h4         1 1DK       0.167000
     48 H16          2.7340     0.8630    -6.5160 ho         1 1DK       0.448000
     49 H17          2.8730    -3.4470    -5.0260 ha         1 1DK       0.135500
     50 H18          2.6880    -5.8120    -4.3870 ha         1 1DK       0.160500
     51 H19          1.0950    -2.3240    -1.2040 ha         1 1DK       0.135500
     52 H20          0.9010    -4.7320    -0.6160 ha         1 1DK       0.160500
     53 H21          1.9380    -7.5110    -2.9330 hc         1 1DK       0.040200
     54 H22          2.5220    -7.0500    -1.2750 hc         1 1DK       0.040200
     55 H24          0.3740    -0.5510    -2.5360 h1         1 1DK       0.104700
@<TRIPOS>BOND
     1     1     2 1   
     2     1    34 1   
     3     1    35 1   
     4     1    36 1   
     5     2     3 ar  
     6     2     9 ar  
     7     3     4 ar  
     8     3    37 1   
     9     4     5 1   
    10     4     6 ar  
    11     5    38 1   
    12     5    39 1   
    13     5    40 1   
    14     6     7 1   
    15     6     8 ar  
    16     7    41 1   
    17     7    42 1   
    18     7    43 1   
    19     8     9 ar  
    20     8    44 1   
    21     9    10 1   
    22    10    11 1   
    23    10    23 1   
    24    10    55 1   
    25    11    12 1   
    26    11    19 2   
    27    12    13 2   
    28    12    14 1   
    29    14    15 2   
    30    14    18 1   
    31    15    16 1   
    32    15    45 1   
    33    16    17 2   
    34    16    46 1   
    35    17    18 1   
    36    17    47 1   
    37    19    20 1   
    38    19    21 1   
    39    20    48 1   
    40    21    22 2   
    41    21    23 1   
    42    23    24 1   
    43    24    25 ar  
    44    24    27 ar  
    45    25    26 ar  
    46    25    49 1   
    47    26    29 ar  
    48    26    50 1   
    49    27    28 ar  
    50    27    51 1   
    51    28    29 ar  
    52    28    52 1   
    53    29    30 1   
    54    30    31 1   
    55    30    53 1   
    56    30    54 1   
    57    31    32 1   
    58    31    33 1   
@<TRIPOS>SUBSTRUCTURE
     1 1DK         1 TEMP              0 ****  ****    0 ROOT
