@<TRIPOS>MOLECULE
molecule
   46    49     1     0     0
SMALL
bcc


@<TRIPOS>ATOM
      1 OAB          0.0000     0.0000     0.0000 o          1 1DL      -0.831300
      2 CAS          1.3470     0.0000     0.0000 c          1 1DL       0.883200
      3 OAE          1.9550     0.0000     1.0520 o          1 1DL      -0.831300
      4 CBC          2.0860    -0.0000    -1.2790 ca         1 1DL      -0.086600
      5 CAQ          1.3970    -0.1360    -2.4850 ca         1 1DL      -0.107000
      6 CAX          3.4740     0.1420    -1.2870 ca         1 1DL      -0.067300
      7 CAA          4.2230     0.2950     0.0120 c3         1 1DL      -0.025800
      8 CAK          4.1620     0.1420    -2.4830 ca         1 1DL      -0.141000
      9 CAN          3.4800     0.0020    -3.6780 ca         1 1DL      -0.184000
     10 CBB          2.0970    -0.1350    -3.6820 ca         1 1DL       0.016600
     11 NBE          1.4130    -0.2760    -4.8930 n          1 1DL      -0.355000
     12 CBD          2.0180    -0.3030    -6.2290 c3         1 1DL       0.234200
     13 CBA          2.9740    -1.4640    -6.3420 cc         1 1DL      -0.041400
     14 SAR          2.6490    -3.1020    -5.7890 ss         1 1DL      -0.040800
     15 CAO          4.2370    -3.6310    -6.3300 cc         1 1DL      -0.060100
     16 CAY          4.8920    -2.6010    -6.8680 cd         1 1DL      -0.041900
     17 BrA          6.6420    -2.7620    -7.5700 br         1 1DL      -0.099100
     18 CAP          4.1920    -1.4060    -6.8800 cd         1 1DL      -0.137000
     19 CAV          0.0820    -0.4170    -5.0380 c          1 1DL       0.655700
     20 OAD         -0.7200    -0.4430    -4.1260 o          1 1DL      -0.572500
     21 CAU         -0.2590    -0.5390    -6.4700 ce         1 1DL       0.071900
     22 OAF         -1.5070    -0.6930    -6.9690 oh         1 1DL      -0.469100
     23 CAW          0.8770    -0.4740    -7.2050 cf         1 1DL      -0.252400
     24 CAT          0.9810    -0.5570    -8.6640 c          1 1DL       0.616900
     25 OAC          0.6960    -1.5920    -9.2370 o          1 1DL      -0.504100
     26 CAZ          1.4300     0.6170    -9.4420 ca         1 1DL      -0.165600
     27 CAL          1.4650     0.5640   -10.8360 ca         1 1DL      -0.079500
     28 CAI          1.8860     1.6630   -11.5550 ca         1 1DL      -0.144500
     29 CAH          2.2720     2.8170   -10.8970 ca         1 1DL      -0.106000
     30 CAJ          2.2390     2.8780    -9.5160 ca         1 1DL      -0.144500
     31 CAM          1.8150     1.7880    -8.7840 ca         1 1DL      -0.079500
     32 H2           0.3190    -0.2430    -2.4850 ha         1 1DL       0.199000
     33 H3           3.8410     1.1540     0.5500 hc         1 1DL       0.041700
     34 H4           5.2770     0.4370    -0.1940 hc         1 1DL       0.041700
     35 H5           4.0900    -0.5970     0.6130 hc         1 1DL       0.041700
     36 H6           5.2400     0.2510    -2.4860 ha         1 1DL       0.114000
     37 H7           4.0260     0.0040    -4.6140 ha         1 1DL       0.109000
     38 H8           2.5330     0.6300    -6.4210 h1         1 1DL       0.085700
     39 H9           4.6240    -4.6390    -6.2390 h4         1 1DL       0.178000
     40 H10          4.6070    -0.4920    -7.2880 ha         1 1DL       0.154000
     41 H11         -2.0730    -0.0290    -6.6120 ho         1 1DL       0.437000
     42 H12          1.1640    -0.3400   -11.3530 ha         1 1DL       0.147000
     43 H13          1.9140     1.6230   -12.6380 ha         1 1DL       0.132000
     44 H14          2.6030     3.6770   -11.4670 ha         1 1DL       0.127000
     45 H15          2.5400     3.7860    -9.0070 ha         1 1DL       0.132000
     46 H16          1.7900     1.8360    -7.7020 ha         1 1DL       0.147000
@<TRIPOS>BOND
     1     7     6 1   
     2     8     6 ar  
     3     8     9 ar  
     4     6     4 ar  
     5     9    10 ar  
     6     3     2 1   
     7     4     2 1   
     8     4     5 ar  
     9     2     1 1   
    10    10     5 ar  
    11    10    11 1   
    12    11    19 1   
    13    11    12 1   
    14    20    19 2   
    15    19    21 1   
    16    12    23 1   
    17    12    13 1   
    18    21    23 2   
    19    21    22 1   
    20    23    24 1   
    21    18    13 2   
    22    18    16 1   
    23    13    14 1   
    24    25    24 2   
    25    24    26 1   
    26    16    17 1   
    27    16    15 2   
    28    26    27 ar  
    29    26    31 ar  
    30    27    28 ar  
    31    14    15 1   
    32    31    30 ar  
    33    28    29 ar  
    34    30    29 ar  
    35     5    32 1   
    36     7    33 1   
    37     7    34 1   
    38     7    35 1   
    39     8    36 1   
    40     9    37 1   
    41    12    38 1   
    42    15    39 1   
    43    18    40 1   
    44    22    41 1   
    45    27    42 1   
    46    28    43 1   
    47    29    44 1   
    48    30    45 1   
    49    31    46 1   
@<TRIPOS>SUBSTRUCTURE
     1 1DL         1 TEMP              0 ****  ****    0 ROOT
