@<TRIPOS>MOLECULE
1DL
   46    49     1     0     0
SMALL
bcc


@<TRIPOS>ATOM
      1 OAB         -0.0750    -1.8320    -1.0410 o          1 1DL      -0.822300
      2 CAS          0.7920    -1.0810    -0.5090 c          1 1DL       0.911200
      3 OAE          0.8770    -0.8520     0.7270 o          1 1DL      -0.822300
      4 CBC          1.7960    -0.4220    -1.4530 ca         1 1DL      -0.114600
      5 CAQ          1.3790    -0.1610    -2.7610 ca         1 1DL      -0.127000
      6 CAX          3.1090    -0.1070    -1.0670 ca         1 1DL      -0.032300
      7 CAA          3.5660    -0.3540     0.3190 c3         1 1DL      -0.050800
      8 CAK          3.9840     0.4540    -2.0050 ca         1 1DL      -0.156000
      9 CAN          3.5830     0.7020    -3.3140 ca         1 1DL      -0.121000
     10 CBB          2.2680     0.3900    -3.7090 ca         1 1DL      -0.016400
     11 NBE          1.8670     0.6180    -5.0510 n          1 1DL      -0.362000
     12 CBD          2.0490    -0.4230    -6.0900 c3         1 1DL       0.244200
     13 CBA          1.7940    -1.8220    -5.6590 cc         1 1DL      -0.226400
     14 SAR          1.2170    -2.3170    -4.1750 ss         1 1DL       0.299200
     15 CAO          1.2640    -3.9140    -4.5450 cc         1 1DL      -0.204100
     16 CAY          1.7490    -4.1380    -5.8280 cd         1 1DL      -0.086900
     17 BrA          1.9700    -5.7990    -6.6110 br         1 1DL      -0.094100
     18 CAP          2.0640    -2.9130    -6.4800 cd         1 1DL      -0.125000
     19 CAV          0.8780     1.5220    -5.4370 c          1 1DL       0.673700
     20 OAD          0.4420     2.5190    -4.8450 o          1 1DL      -0.607500
     21 CAU          0.4530     1.1330    -6.8420 ce         1 1DL       0.043900
     22 OAF         -0.4480     1.8650    -7.5430 oh         1 1DL      -0.468100
     23 CAW          1.1150     0.0160    -7.2350 cf         1 1DL      -0.237400
     24 CAT          1.1320    -0.6760    -8.5250 c          1 1DL       0.624900
     25 OAC          2.2050    -0.9070    -9.1050 o          1 1DL      -0.545100
     26 CAZ         -0.1590    -1.0990    -9.1130 ca         1 1DL      -0.159600
     27 CAL         -0.1800    -1.5520   -10.4410 ca         1 1DL      -0.069500
     28 CAI         -1.3740    -1.9750   -11.0190 ca         1 1DL      -0.150500
     29 CAH         -2.5550    -1.9560   -10.2760 ca         1 1DL      -0.106000
     30 CAJ         -2.5400    -1.5100    -8.9550 ca         1 1DL      -0.150500
     31 CAM         -1.3470    -1.0800    -8.3740 ca         1 1DL      -0.069500
     32 H2           0.3180    -0.3610    -3.0060 ha         1 1DL       0.163000
     33 H3           2.9830     0.2950     1.0230 hc         1 1DL       0.049700
     34 H4           3.3510    -1.4140     0.6090 hc         1 1DL       0.049700
     35 H5           4.6570    -0.1490     0.4370 hc         1 1DL       0.049700
     36 H6           5.0130     0.7060    -1.7060 ha         1 1DL       0.117000
     37 H7           4.2940     1.1370    -4.0310 ha         1 1DL       0.123000
     38 H8           3.1170    -0.3470    -6.4610 h1         1 1DL       0.096700
     39 H9           0.9580    -4.6970    -3.8480 h4         1 1DL       0.185000
     40 H10          2.4630    -2.8420    -7.4960 ha         1 1DL       0.163000
     41 H11         -0.6900     2.6220    -6.9770 ho         1 1DL       0.446000
     42 H12          0.7610    -1.5740   -11.0140 ha         1 1DL       0.149500
     43 H13         -1.3840    -2.3290   -12.0590 ha         1 1DL       0.131500
     44 H14         -3.4970    -2.2950   -10.7310 ha         1 1DL       0.126000
     45 H15         -3.4680    -1.4970    -8.3660 ha         1 1DL       0.131500
     46 H16         -1.3400    -0.7200    -7.3320 ha         1 1DL       0.149500
@<TRIPOS>BOND
     1     1     2 1   
     2     2     3 1   
     3     2     4 1   
     4     4     5 ar  
     5     4     6 ar  
     6     5    10 ar  
     7     5    32 1   
     8     6     7 1   
     9     6     8 ar  
    10     7    33 1   
    11     7    34 1   
    12     7    35 1   
    13     8     9 ar  
    14     8    36 1   
    15     9    10 ar  
    16     9    37 1   
    17    10    11 1   
    18    11    12 1   
    19    11    19 1   
    20    12    13 1   
    21    12    23 1   
    22    12    38 1   
    23    13    14 1   
    24    13    18 2   
    25    14    15 1   
    26    15    16 2   
    27    15    39 1   
    28    16    17 1   
    29    16    18 1   
    30    18    40 1   
    31    19    20 2   
    32    19    21 1   
    33    21    22 1   
    34    21    23 2   
    35    22    41 1   
    36    23    24 1   
    37    24    25 2   
    38    24    26 1   
    39    26    27 ar  
    40    26    31 ar  
    41    27    28 ar  
    42    27    42 1   
    43    28    29 ar  
    44    28    43 1   
    45    29    30 ar  
    46    29    44 1   
    47    30    31 ar  
    48    30    45 1   
    49    31    46 1   
@<TRIPOS>SUBSTRUCTURE
     1 1DL         1 TEMP              0 ****  ****    0 ROOT
