@<TRIPOS>MOLECULE
1DM
   76    79     1     0     0
SMALL
bcc


@<TRIPOS>ATOM
      1 C21         -0.5030    -0.1350     0.9760 c3         1 1DM       0.125050
      2 C22          0.7970    -0.7190     0.4080 c3         1 1DM       0.124650
      3 O22          1.8840    -0.5210     1.3000 os         1 1DM      -0.391600
      4 C23          2.0820     0.8520     1.6090 c3         1 1DM       0.124650
      5 C24          0.8160     1.4790     2.2090 c3         1 1DM       0.125050
      6 N20         -0.3610     1.2660     1.3690 n3         1 1DM      -0.772100
      7 C20         -1.5730     1.8060     1.9620 c3         1 1DM       0.143800
      8 C19         -2.5630     2.3160     0.8850 c3         1 1DM       0.130500
      9 C30         -3.7510     3.0150     1.5960 c3         1 1DM       0.143800
     10 N19         -4.6580     3.6300     0.6430 n3         1 1DM      -0.772100
     11 C25         -5.6960     2.7140     0.1760 c3         1 1DM       0.125050
     12 C26         -6.6800     3.3880    -0.7890 c3         1 1DM       0.124650
     13 O23         -7.2240     4.5730    -0.2270 os         1 1DM      -0.391600
     14 C27         -6.2160     5.5050     0.1400 c3         1 1DM       0.124650
     15 C28         -5.2170     4.8900     1.1290 c3         1 1DM       0.125050
     16 N18         -1.9080     3.1830    -0.1530 ny         1 1DM      -0.650800
     17 C13         -1.1950     4.4150     0.3390 c          1 1DM       0.581700
     18 O17         -1.3530     4.7470     1.5070 o          1 1DM      -0.432100
     19 C11         -0.3480     5.1010    -0.6520 ca         1 1DM      -0.175600
     20 C12          0.6400     5.9580    -0.1480 ca         1 1DM      -0.054000
     21 C10         -0.5160     4.9360    -2.0310 ca         1 1DM      -0.087000
     22 C9           0.3250     5.6390    -2.9040 ca         1 1DM      -0.141200
     23 N14          0.1460     5.4580    -4.3790 no         1 1DM       0.316200
     24 O15         -0.7040     4.6950    -4.7510 o          1 1DM      -0.177000
     25 O16          0.8550     6.0700    -5.1230 o          1 1DM      -0.177000
     26 C8           1.3180     6.5080    -2.4310 ca         1 1DM      -0.081000
     27 C7           1.4710     6.6560    -1.0440 ca         1 1DM       0.147100
     28 O1           2.3720     7.5110    -0.4610 os         1 1DM      -0.338900
     29 C1           3.5660     7.8080    -1.2050 c3         1 1DM       0.338900
     30 O5           3.2020     8.7870    -2.1360 os         1 1DM      -0.430600
     31 C5           2.8500    10.0720    -1.5980 c3         1 1DM       0.109100
     32 C6           2.6510    10.9770    -2.8200 c3         1 1DM       0.140400
     33 O6           1.6270    10.4710    -3.6450 oh         1 1DM      -0.591800
     34 C4           3.9160    10.6310    -0.6500 c3         1 1DM       0.091100
     35 O4           5.0740    10.9320    -1.4070 oh         1 1DM      -0.584800
     36 C3           4.2170     9.6000     0.4510 c3         1 1DM       0.064100
     37 O3           5.3320    10.0150     1.2230 oh         1 1DM      -0.602800
     38 C2           4.6330     8.2700    -0.1980 c3         1 1DM       0.138100
     39 O2           4.7810     7.2440     0.7600 oh         1 1DM      -0.591800
     40 H211        -1.3010    -0.1940     0.1850 h1         1 1DM       0.050450
     41 H212        -0.8280    -0.7750     1.8470 h1         1 1DM       0.050450
     42 H221         1.0350    -0.2660    -0.5900 h1         1 1DM       0.065950
     43 H222         0.7090    -1.8340     0.3150 h1         1 1DM       0.065950
     44 H231         2.4040     1.4070     0.6900 h1         1 1DM       0.065950
     45 H232         2.9060     0.8520     2.3710 h1         1 1DM       0.065950
     46 H241         0.6620     1.0520     3.2420 h1         1 1DM       0.050450
     47 H242         0.9780     2.5880     2.3090 h1         1 1DM       0.050450
     48 H201        -2.1420     1.0420     2.5680 h1         1 1DM       0.081700
     49 H202        -1.3140     2.6630     2.6490 h1         1 1DM       0.081700
     50 H19         -2.9600     1.4280     0.3010 hx         1 1DM       0.095700
     51 H301        -4.2490     2.2150     2.2200 h1         1 1DM       0.081700
     52 H302        -3.3430     3.7930     2.3030 h1         1 1DM       0.081700
     53 H251        -5.1920     1.8610    -0.3570 h1         1 1DM       0.050450
     54 H252        -6.2840     2.2860     1.0400 h1         1 1DM       0.050450
     55 H261        -6.1830     3.6220    -1.7670 h1         1 1DM       0.065950
     56 H262        -7.5690     2.7230    -0.9570 h1         1 1DM       0.065950
     57 H271        -5.6890     5.8770    -0.7790 h1         1 1DM       0.065950
     58 H272        -6.7740     6.3450     0.6320 h1         1 1DM       0.065950
     59 H281        -5.7390     4.7490     2.1200 h1         1 1DM       0.050450
     60 H282        -4.3680     5.6130     1.2810 h1         1 1DM       0.050450
     61 H18         -2.6380     3.4910    -0.8140 hn         1 1DM       0.473300
     62 H12          0.7700     6.1020     0.9390 ha         1 1DM       0.190000
     63 H10         -1.2990     4.2910    -2.4650 ha         1 1DM       0.163000
     64 H8           1.9550     7.0820    -3.1340 ha         1 1DM       0.214000
     65 H1           3.9190     6.9210    -1.8020 h2         1 1DM       0.106700
     66 H5           1.8860     9.9540    -1.0280 h1         1 1DM       0.064700
     67 H61          3.6190    11.0800    -3.3780 h1         1 1DM       0.076200
     68 H62          2.2910    11.9840    -2.4770 h1         1 1DM       0.076200
     69 HO6          1.9840     9.6990    -4.1010 ho         1 1DM       0.409000
     70 H4           3.5280    11.5800    -0.1810 h1         1 1DM       0.057700
     71 HO4          5.7970    11.0690    -0.7760 ho         1 1DM       0.425000
     72 H3           3.3140     9.4450     1.1010 h1         1 1DM       0.072700
     73 HO3          5.0360    10.7410     1.7860 ho         1 1DM       0.422000
     74 H2           5.5950     8.4230    -0.7670 h1         1 1DM       0.090700
     75 HO2          5.4290     7.5670     1.4040 ho         1 1DM       0.436000
     76 H182        -1.2180     2.6100    -0.6590 hn         1 1DM       0.473300
@<TRIPOS>BOND
     1     1     2 1   
     2     1     6 1   
     3     1    40 1   
     4     1    41 1   
     5     2     3 1   
     6     2    42 1   
     7     2    43 1   
     8     3     4 1   
     9     4     5 1   
    10     4    44 1   
    11     4    45 1   
    12     5     6 1   
    13     5    46 1   
    14     5    47 1   
    15     6     7 1   
    16     7     8 1   
    17     7    48 1   
    18     7    49 1   
    19     8     9 1   
    20     8    16 1   
    21     8    50 1   
    22     9    10 1   
    23     9    51 1   
    24     9    52 1   
    25    10    11 1   
    26    10    15 1   
    27    11    12 1   
    28    11    53 1   
    29    11    54 1   
    30    12    13 1   
    31    12    55 1   
    32    12    56 1   
    33    13    14 1   
    34    14    15 1   
    35    14    57 1   
    36    14    58 1   
    37    15    59 1   
    38    15    60 1   
    39    16    17 1   
    40    16    61 1   
    41    16    76 1   
    42    17    18 2   
    43    17    19 1   
    44    19    20 ar  
    45    19    21 ar  
    46    20    27 ar  
    47    20    62 1   
    48    21    22 ar  
    49    21    63 1   
    50    22    23 1   
    51    22    26 ar  
    52    23    24 1   
    53    23    25 1   
    54    26    27 ar  
    55    26    64 1   
    56    27    28 1   
    57    28    29 1   
    58    29    30 1   
    59    29    38 1   
    60    29    65 1   
    61    30    31 1   
    62    31    32 1   
    63    31    34 1   
    64    31    66 1   
    65    32    33 1   
    66    32    67 1   
    67    32    68 1   
    68    33    69 1   
    69    34    35 1   
    70    34    36 1   
    71    34    70 1   
    72    35    71 1   
    73    36    37 1   
    74    36    38 1   
    75    36    72 1   
    76    37    73 1   
    77    38    39 1   
    78    38    74 1   
    79    39    75 1   
@<TRIPOS>SUBSTRUCTURE
     1 1DM         1 TEMP              0 ****  ****    0 ROOT
