@<TRIPOS>MOLECULE
molecule
   75    78     1     0     0
SMALL
bcc


@<TRIPOS>ATOM
      1 C21          0.0000     0.0000     0.0000 c3         1 1DM       0.094800
      2 C22          1.5290     0.0000     0.0000 c3         1 1DM       0.125650
      3 O22          2.0110     0.0000     1.3440 os         1 1DM      -0.405100
      4 C23          1.5740     1.2160     1.9490 c3         1 1DM       0.125650
      5 C24          0.0450     1.2470     1.9990 c3         1 1DM       0.094800
      6 N20         -0.4910     1.2310     0.6320 n3         1 1DM      -0.676600
      7 C20         -1.9490     1.0920     0.7520 c3         1 1DM       0.119800
      8 C19         -2.5180     2.3070     1.4870 c3         1 1DM       0.112700
      9 C30         -2.2960     3.5640     0.6440 c3         1 1DM       0.119800
     10 N19         -2.9470     4.7100     1.2920 n3         1 1DM      -0.676600
     11 C25         -2.4980     5.9120     0.5760 c3         1 1DM       0.094800
     12 C26         -3.0000     7.1590     1.3040 c3         1 1DM       0.125650
     13 O23         -2.4300     7.2160     2.6120 os         1 1DM      -0.405100
     14 C27         -2.8990     6.0730     3.3260 c3         1 1DM       0.125650
     15 C28         -2.3940     4.7980     2.6500 c3         1 1DM       0.094800
     16 N18         -3.9540     2.1150     1.7070 ns         1 1DM      -0.565900
     17 C13         -4.3810     1.3500     2.7320 c          1 1DM       0.675700
     18 O17         -3.5820     0.8980     3.5270 o          1 1DM      -0.608100
     19 C11         -5.8240     1.0640     2.8880 ca         1 1DM      -0.114600
     20 C12         -6.2690     0.2730     3.9480 ca         1 1DM      -0.098000
     21 C10         -6.7440     1.5830     1.9760 ca         1 1DM      -0.082000
     22 C9          -8.0890     1.3140     2.1250 ca         1 1DM      -0.135200
     23 N14         -9.0640     1.8660     1.1580 no         1 1DM       0.296200
     24 O15         -8.6770     2.5570     0.2320 o          1 1DM      -0.203500
     25 O16        -10.2510     1.6290     1.2870 o          1 1DM      -0.203500
     26 C8          -8.5290     0.5260     3.1730 ca         1 1DM      -0.085000
     27 C7          -7.6220     0.0090     4.0880 ca         1 1DM       0.104100
     28 O1          -8.0590    -0.7610     5.1190 os         1 1DM      -0.305900
     29 C1          -6.9230    -1.0370     5.9400 c3         1 1DM       0.283900
     30 O5          -6.4620     0.1750     6.5350 os         1 1DM      -0.378600
     31 C5          -7.5780     0.7930     7.1750 c3         1 1DM       0.126100
     32 C6          -7.1760     2.1860     7.6620 c3         1 1DM       0.148400
     33 O6          -6.8730     3.0150     6.5380 oh         1 1DM      -0.602800
     34 C4          -8.0230    -0.0550     8.3680 c3         1 1DM       0.105100
     35 O4          -6.9400    -0.2000     9.2890 oh         1 1DM      -0.582800
     36 C3          -8.4580    -1.4370     7.8650 c3         1 1DM       0.126100
     37 O3          -8.7360    -2.2900     8.9780 oh         1 1DM      -0.594800
     38 C2          -7.3180    -2.0340     7.0330 c3         1 1DM       0.130100
     39 O2          -7.7520    -3.2550     6.4310 oh         1 1DM      -0.591800
     40 H211        -0.3600    -0.8580     0.5560 h1         1 1DM       0.050825
     41 H212        -0.3590    -0.0480    -1.0210 h1         1 1DM       0.050825
     42 H221         1.8880     0.8860    -0.5100 h1         1 1DM       0.054825
     43 H222         1.8880    -0.8860    -0.5100 h1         1 1DM       0.054825
     44 H231         1.9670     1.2760     2.9570 h1         1 1DM       0.054825
     45 H232         1.9310     2.0560     1.3670 h1         1 1DM       0.054825
     46 H241        -0.3150     0.3790     2.5370 h1         1 1DM       0.050825
     47 H242        -0.2800     2.1500     2.5020 h1         1 1DM       0.050825
     48 H201        -2.3880     1.0300    -0.2370 h1         1 1DM       0.054200
     49 H202        -2.1820     0.1920     1.3070 h1         1 1DM       0.054200
     50 H19         -2.0180     2.4180     2.4410 h1         1 1DM       0.085700
     51 H301        -2.7200     3.4170    -0.3420 h1         1 1DM       0.054200
     52 H302        -1.2330     3.7560     0.5550 h1         1 1DM       0.054200
     53 H251        -1.4150     5.9270     0.5420 h1         1 1DM       0.050825
     54 H252        -2.8950     5.9000    -0.4320 h1         1 1DM       0.050825
     55 H261        -2.7090     8.0420     0.7470 h1         1 1DM       0.054825
     56 H262        -4.0800     7.1170     1.3850 h1         1 1DM       0.054825
     57 H271        -2.5290     6.1090     4.3440 h1         1 1DM       0.054825
     58 H272        -3.9820     6.0720     3.3310 h1         1 1DM       0.054825
     59 H281        -1.3120     4.8240     2.5960 h1         1 1DM       0.050825
     60 H282        -2.7120     3.9360     3.2240 h1         1 1DM       0.050825
     61 H18         -4.6150     2.5070     1.0660 hn         1 1DM       0.329500
     62 H12         -5.5600    -0.1290     4.6600 ha         1 1DM       0.191000
     63 H10         -6.4000     2.1830     1.1420 ha         1 1DM       0.162000
     64 H8          -9.5860     0.3180     3.2850 ha         1 1DM       0.177000
     65 H1          -6.1320    -1.4630     5.3350 h2         1 1DM       0.098700
     66 H5          -8.3950     0.8750     6.4690 h1         1 1DM       0.073700
     67 H61         -7.9940     2.6220     8.2220 h1         1 1DM       0.037700
     68 H62         -6.3030     2.1080     8.2990 h1         1 1DM       0.037700
     69 HO6         -6.7720     3.9080     6.8240 ho         1 1DM       0.406000
     70 H4          -8.8590     0.4270     8.8600 h1         1 1DM       0.044700
     71 HO4         -7.2440    -0.0180    10.1630 ho         1 1DM       0.408000
     72 H3          -9.3420    -1.3360     7.2480 h1         1 1DM       0.063700
     73 HO3         -9.6570    -2.4870     9.0010 ho         1 1DM       0.408000
     74 H2          -6.4650    -2.2240     7.6730 h1         1 1DM       0.088700
     75 HO2         -7.1430    -3.9430     6.6420 ho         1 1DM       0.412000
@<TRIPOS>BOND
     1     1     2 1
     2     1     6 1
     3     1    40 1
     4     1    41 1
     5     2     3 1
     6     2    42 1
     7     2    43 1
     8     3     4 1
     9     4     5 1
    10     4    44 1
    11     4    45 1
    12     5     6 1
    13     5    46 1
    14     5    47 1
    15     6     7 1
    16     7     8 1
    17     7    48 1
    18     7    49 1
    19     8     9 1
    20     8    16 1
    21     8    50 1
    22     9    10 1
    23     9    51 1
    24     9    52 1
    25    10    11 1
    26    10    15 1
    27    11    12 1
    28    11    53 1
    29    11    54 1
    30    12    13 1
    31    12    55 1
    32    12    56 1
    33    13    14 1
    34    14    15 1
    35    14    57 1
    36    14    58 1
    37    15    59 1
    38    15    60 1
    39    16    17 1
    40    16    61 1
    41    17    18 2
    42    17    19 1
    43    19    20 ar
    44    19    21 ar
    45    20    27 ar
    46    20    62 1
    47    21    22 ar
    48    21    63 1
    49    22    23 1
    50    22    26 ar
    51    23    24 1
    52    23    25 1
    53    26    27 ar
    54    26    64 1
    55    27    28 1
    56    28    29 1
    57    29    30 1
    58    29    38 1
    59    29    65 1
    60    30    31 1
    61    31    32 1
    62    31    34 1
    63    31    66 1
    64    32    33 1
    65    32    67 1
    66    32    68 1
    67    33    69 1
    68    34    35 1
    69    34    36 1
    70    34    70 1
    71    35    71 1
    72    36    37 1
    73    36    38 1
    74    36    72 1
    75    37    73 1
    76    38    39 1
    77    38    74 1
    78    39    75 1
@<TRIPOS>SUBSTRUCTURE
     1 1DM         1 TEMP              0 ****  ****    0 ROOT
