@<TRIPOS>MOLECULE
1DN
   47    51     1     0     0
SMALL
bcc


@<TRIPOS>ATOM
      1 N12          0.0390     0.6580    -0.0890 nv         1 1DN      -0.925500
      2 C3           1.4020     0.3380    -0.0670 ca         1 1DN       0.907900
      3 N2           1.9440     0.0220     1.1890 nb         1 1DN      -0.824000
      4 N4           2.0950     0.4000    -1.2420 nb         1 1DN      -0.792000
      5 C5           3.4530     0.2010    -1.1660 ca         1 1DN       0.488600
      6 C10          4.2230     0.2600    -2.3710 ca         1 1DN      -0.203300
      7 C9           5.6000     0.0900    -2.3340 ca         1 1DN       0.060800
      8 C8           6.2600    -0.1400    -1.0890 ca         1 1DN      -0.136000
      9 C7           5.5280    -0.2170     0.0710 ca         1 1DN      -0.069000
     10 C6           4.1260    -0.0610     0.0650 ca         1 1DN      -0.330600
     11 C1           3.2810    -0.1490     1.2540 ca         1 1DN       0.728200
     12 N11          3.8580    -0.3700     2.4960 nv         1 1DN      -0.945500
     13 N13          6.3580     0.1910    -3.5230 na         1 1DN      -0.073400
     14 C17          7.2470    -0.7520    -4.1040 cc         1 1DN       0.375800
     15 C22          7.4870    -2.0930    -3.5920 cc         1 1DN       0.341100
     16 N26          6.8280    -2.6650    -2.5680 nd         1 1DN      -0.622000
     17 C25          7.3060    -3.9440    -2.3880 cd         1 1DN       0.329200
     18 C24          8.3150    -4.3270    -3.2710 cc         1 1DN      -0.289400
     19 S23          8.6680    -3.0970    -4.3250 ss         1 1DN       0.053700
     20 N16          7.8360    -0.2830    -5.2340 nd         1 1DN      -0.566100
     21 C15          7.3240     1.0070    -5.4210 ca         1 1DN       0.073400
     22 C21          7.5800     1.9560    -6.4280 ca         1 1DN      -0.134000
     23 C20          6.9150     3.1700    -6.3660 ca         1 1DN       0.093100
     24 O29          7.0690     4.1930    -7.2820 os         1 1DN      -0.303900
     25 C30          7.9680     3.9360    -8.3540 c3         1 1DN       0.109700
     26 C19          5.9870     3.4660    -5.3100 ca         1 1DN       0.132100
     27 C18          5.7160     2.5480    -4.3050 ca         1 1DN      -0.188000
     28 C14          6.3880     1.3170    -4.3620 ca         1 1DN      -0.059200
     29 O27          5.4100     4.7150    -5.3970 os         1 1DN      -0.300900
     30 C28          4.4710     5.0420    -4.3770 c3         1 1DN       0.107700
     31 H1          -0.4090     0.6170    -0.9760 hn         1 1DN       0.425300
     32 H2          -0.5010     0.3570     0.6890 hn         1 1DN       0.425300
     33 H3           3.6970     0.4460    -3.3230 ha         1 1DN       0.165000
     34 H4           7.3530    -0.2660    -1.0650 ha         1 1DN       0.149000
     35 H5           6.0680    -0.3890     1.0150 ha         1 1DN       0.129000
     36 H6           4.7320    -0.8370     2.5050 hn         1 1DN       0.425800
     37 H7           3.2560    -0.5450     3.2680 hn         1 1DN       0.425800
     38 H8           6.8740    -4.5610    -1.5920 h4         1 1DN       0.045100
     39 H9           8.8030    -5.3000    -3.2690 h4         1 1DN       0.184000
     40 H10          8.2910     1.7200    -7.2310 ha         1 1DN       0.157000
     41 H11          7.9260     4.8780    -8.9570 h1         1 1DN       0.044700
     42 H12          9.0020     3.7600    -7.9700 h1         1 1DN       0.044700
     43 H13          7.6220     3.0640    -8.9600 h1         1 1DN       0.044700
     44 H14          5.0050     2.7580    -3.4950 ha         1 1DN       0.157000
     45 H15          3.6080     4.3330    -4.3930 h1         1 1DN       0.047033
     46 H16          4.1410     6.0750    -4.6550 h1         1 1DN       0.047033
     47 H17          4.9620     5.0400    -3.3730 h1         1 1DN       0.047033
@<TRIPOS>BOND
     1     1     2 1   
     2     1    31 1   
     3     1    32 1   
     4     2     3 ar  
     5     2     4 ar  
     6     3    11 ar  
     7     4     5 ar  
     8     5     6 ar  
     9     5    10 ar  
    10     6     7 ar  
    11     6    33 1   
    12     7     8 ar  
    13     7    13 1   
    14     8     9 ar  
    15     8    34 1   
    16     9    10 ar  
    17     9    35 1   
    18    10    11 ar  
    19    11    12 1   
    20    12    36 1   
    21    12    37 1   
    22    13    14 1   
    23    13    28 1   
    24    14    15 1   
    25    14    20 2   
    26    15    16 2   
    27    15    19 1   
    28    16    17 1   
    29    17    18 2   
    30    17    38 1   
    31    18    19 1   
    32    18    39 1   
    33    20    21 1   
    34    21    22 ar  
    35    21    28 ar  
    36    22    23 ar  
    37    22    40 1   
    38    23    24 1   
    39    23    26 ar  
    40    24    25 1   
    41    25    41 1   
    42    25    42 1   
    43    25    43 1   
    44    26    27 ar  
    45    26    29 1   
    46    27    28 ar  
    47    27    44 1   
    48    29    30 1   
    49    30    45 1   
    50    30    46 1   
    51    30    47 1   
@<TRIPOS>SUBSTRUCTURE
     1 1DN         1 TEMP              0 ****  ****    0 ROOT
