@<TRIPOS>MOLECULE
molecule
   47    51     1     0     0
SMALL
bcc


@<TRIPOS>ATOM
      1 N12          0.0000     0.0000     0.0000 nv         1 1DN      -1.060500
      2 C3           1.3830     0.0000     0.0000 ca         1 1DN       0.950900
      3 N2           2.0210     0.0000     1.1660 nb         1 1DN      -0.773000
      4 N4           2.0160    -0.0060    -1.1580 nb         1 1DN      -0.740000
      5 C5           3.3570    -0.0080    -1.2000 ca         1 1DN       0.464600
      6 C10          4.0570    -0.0130    -2.4120 ca         1 1DN      -0.173300
      7 C9           5.4380    -0.0140    -2.3980 ca         1 1DN       0.014800
      8 C8           6.1390    -0.0080    -1.1880 ca         1 1DN      -0.143000
      9 C7           5.4780    -0.0030     0.0020 ca         1 1DN      -0.071000
     10 C6           4.0780    -0.0020     0.0200 ca         1 1DN      -0.304600
     11 C1           3.3450    -0.0010     1.2310 ca         1 1DN       0.751200
     12 N11          3.9930    -0.0000     2.4480 nv         1 1DN      -1.081500
     13 N13          6.1410    -0.0200    -3.6060 na         1 1DN      -0.085400
     14 C17          6.1430    -1.0230    -4.5430 cc         1 1DN       0.381800
     15 C22          5.3980    -2.2880    -4.4350 cc         1 1DN       0.463100
     16 N26          5.3950    -3.2440    -5.3220 nd         1 1DN      -0.629000
     17 C25          4.6690    -4.3030    -5.0560 cd         1 1DN       0.363200
     18 C24          4.0070    -4.2790    -3.8910 cc         1 1DN      -0.181400
     19 S23          4.3690    -2.7550    -3.0830 ss         1 1DN      -0.220300
     20 N16          6.9120    -0.6840    -5.5520 nd         1 1DN      -0.537100
     21 C15          7.4440     0.5410    -5.3290 ca         1 1DN       0.092400
     22 C21          8.3120     1.3580    -6.0650 ca         1 1DN      -0.141000
     23 C20          8.6840     2.5880    -5.5650 ca         1 1DN       0.111100
     24 O29          9.5270     3.3810    -6.2810 os         1 1DN      -0.313900
     25 C30          9.9830     2.8760    -7.5380 c3         1 1DN       0.125700
     26 C19          8.2020     3.0240    -4.3290 ca         1 1DN       0.148100
     27 C18          7.3460     2.2260    -3.5940 ca         1 1DN      -0.205000
     28 C14          6.9630     0.9860    -4.0840 ca         1 1DN      -0.067200
     29 O27          8.5790     4.2380    -3.8470 os         1 1DN      -0.305900
     30 C28          8.0500     4.6240    -2.5770 c3         1 1DN       0.125700
     31 H1          -0.5000    -0.8670     0.0070 hn         1 1DN       0.446800
     32 H2          -0.5000     0.8670    -0.0070 hn         1 1DN       0.446800
     33 H3           3.5200    -0.0180    -3.3530 ha         1 1DN       0.173000
     34 H4           7.2230    -0.0080    -1.1980 ha         1 1DN       0.151000
     35 H5           6.0330     0.0010     0.9320 ha         1 1DN       0.149000
     36 H6           4.2080     0.8660     2.9000 hn         1 1DN       0.445300
     37 H7           4.2080    -0.8670     2.9000 hn         1 1DN       0.445300
     38 H8           4.6070    -5.1440    -5.7360 h4         1 1DN       0.046100
     39 H9           3.3630    -5.0620    -3.5100 h4         1 1DN       0.182000
     40 H10          8.6270     1.0580    -7.0570 ha         1 1DN       0.158000
     41 H11          9.1340     2.7160    -8.1920 h1         1 1DN       0.043367
     42 H12         10.5020     1.9370    -7.3840 h1         1 1DN       0.043367
     43 H13         10.6580     3.5920    -7.9910 h1         1 1DN       0.043367
     44 H14          6.9750     2.5690    -2.6350 ha         1 1DN       0.144000
     45 H15          8.3590     3.9090    -1.8240 h1         1 1DN       0.041700
     46 H16          8.4210     5.6070    -2.3140 h1         1 1DN       0.041700
     47 H17          6.9680     4.6480    -2.6280 h1         1 1DN       0.041700
@<TRIPOS>BOND
     1    18    19 1
     2    18    17 2
     3    19    15 1
     4    17    16 1
     5    16    15 2
     6    15    14 1
     7    20    14 2
     8    20    21 1
     9    14    13 1
    10    21    22 ar
    11    21    28 ar
    12    22    23 ar
    13    13    28 1
    14    13     7 1
    15    28    27 ar
    16     6     7 ar
    17     6     5 ar
    18     7     8 ar
    19    25    24 1
    20    23    24 1
    21    23    26 ar
    22     4     5 ar
    23     4     2 ar
    24     5    10 ar
    25     8     9 ar
    26    27    26 ar
    27     1     2 1
    28     2     3 ar
    29    26    29 1
    30    10     9 ar
    31    10    11 ar
    32     3    11 ar
    33    11    12 1
    34    29    30 1
    35     1    31 1
    36     1    32 1
    37     6    33 1
    38     8    34 1
    39     9    35 1
    40    12    36 1
    41    12    37 1
    42    17    38 1
    43    18    39 1
    44    22    40 1
    45    25    41 1
    46    25    42 1
    47    25    43 1
    48    27    44 1
    49    30    45 1
    50    30    46 1
    51    30    47 1
@<TRIPOS>SUBSTRUCTURE
     1 1DN         1 TEMP              0 ****  ****    0 ROOT
