@<TRIPOS>MOLECULE
molecule
   39    38     1     0     0
SMALL
bcc


@<TRIPOS>ATOM
      1 O2S          0.0000     0.0000     0.0000 oh         1 1DO      -0.612800
      2 C1           1.4290     0.0000     0.0000 c3         1 1DO       0.140400
      3 C2           1.9390     0.0000     1.4420 c3         1 1DO      -0.081400
      4 C3           3.4690    -0.0000     1.4410 c3         1 1DO      -0.082400
      5 C4           3.9800    -0.0000     2.8840 c3         1 1DO      -0.080400
      6 C5           5.5100    -0.0000     2.8840 c3         1 1DO      -0.082400
      7 C6           6.0200     0.0000     4.3260 c3         1 1DO      -0.081400
      8 C7           7.5500    -0.0000     4.3260 c3         1 1DO      -0.082400
      9 C8           8.0610    -0.0000     5.7680 c3         1 1DO      -0.082400
     10 C9           9.5910    -0.0000     5.7680 c3         1 1DO      -0.082400
     11 C10         10.1010    -0.0000     7.2100 c3         1 1DO      -0.081400
     12 C11         11.6310    -0.0000     7.2100 c3         1 1DO      -0.084400
     13 C12         12.1410    -0.0000     8.6530 c3         1 1DO      -0.092100
     14 H2S         -0.3140     0.0000    -0.8890 ho         1 1DO       0.401000
     15 H1C1         1.7900     0.8850    -0.5110 h1         1 1DO       0.018700
     16 H1C2         1.7900    -0.8850    -0.5110 h1         1 1DO       0.018700
     17 H2C1         1.5780     0.8850     1.9530 hc         1 1DO       0.053700
     18 H2C2         1.5780    -0.8850     1.9530 hc         1 1DO       0.053700
     19 H3C1         3.8300     0.8850     0.9310 hc         1 1DO       0.040700
     20 H3C2         3.8300    -0.8850     0.9310 hc         1 1DO       0.040700
     21 H4C1         3.6190     0.8840     3.3950 hc         1 1DO       0.043700
     22 H4C2         3.6190    -0.8840     3.3950 hc         1 1DO       0.043700
     23 H5C1         5.8710     0.8840     2.3740 hc         1 1DO       0.040700
     24 H5C2         5.8710    -0.8840     2.3740 hc         1 1DO       0.040700
     25 H6C1         5.6590    -0.8850     4.8370 hc         1 1DO       0.041700
     26 H6C2         5.6590     0.8850     4.8370 hc         1 1DO       0.041700
     27 H7C1         7.9110    -0.8850     3.8150 hc         1 1DO       0.040700
     28 H7C2         7.9110     0.8850     3.8150 hc         1 1DO       0.040700
     29 H8C1         7.7000     0.8850     6.2790 hc         1 1DO       0.041700
     30 H8C2         7.7000    -0.8850     6.2790 hc         1 1DO       0.041700
     31 H9C1         9.9520    -0.8850     5.2570 hc         1 1DO       0.040700
     32 H9C2         9.9520     0.8850     5.2570 hc         1 1DO       0.040700
     33 H101         9.7400     0.8840     7.7200 hc         1 1DO       0.040700
     34 H102         9.7400    -0.8840     7.7200 hc         1 1DO       0.040700
     35 H111        11.9920     0.8840     6.6990 hc         1 1DO       0.039700
     36 H112        11.9920    -0.8840     6.6990 hc         1 1DO       0.039700
     37 H121        11.7810     0.8850     9.1630 hc         1 1DO       0.032367
     38 H122        13.2250    -0.0000     8.6520 hc         1 1DO       0.032367
     39 H123        11.7800    -0.8850     9.1630 hc         1 1DO       0.032367
@<TRIPOS>BOND
     1     1     2 1
     2     1    14 1
     3     2     3 1
     4     2    15 1
     5     2    16 1
     6     3     4 1
     7     3    17 1
     8     3    18 1
     9     4     5 1
    10     4    19 1
    11     4    20 1
    12     5     6 1
    13     5    21 1
    14     5    22 1
    15     6     7 1
    16     6    23 1
    17     6    24 1
    18     7     8 1
    19     7    25 1
    20     7    26 1
    21     8     9 1
    22     8    27 1
    23     8    28 1
    24     9    10 1
    25     9    29 1
    26     9    30 1
    27    10    11 1
    28    10    31 1
    29    10    32 1
    30    11    12 1
    31    11    33 1
    32    11    34 1
    33    12    13 1
    34    12    35 1
    35    12    36 1
    36    13    37 1
    37    13    38 1
    38    13    39 1
@<TRIPOS>SUBSTRUCTURE
     1 1DO         1 TEMP              0 ****  ****    0 ROOT
