@<TRIPOS>MOLECULE
1DO
   39    38     1     0     0
SMALL
bcc


@<TRIPOS>ATOM
      1 O2S         0.0170    0.0020    0.0640 oh        1 1DO     -0.601800
      2 C1          1.4350   -0.0010   -0.0030 c3        1 1DO      0.131400
      3 C2          1.9490    0.0010    1.4260 c3        1 1DO     -0.084400
      4 C3          3.4610   -0.0000    1.4470 c3        1 1DO     -0.078400
      5 C4          3.9870    0.0000    2.8670 c3        1 1DO     -0.078400
      6 C5          5.5000    0.0000    2.8920 c3        1 1DO     -0.079400
      7 C6          6.0260    0.0000    4.3110 c3        1 1DO     -0.079400
      8 C7          7.5390   -0.0000    4.3370 c3        1 1DO     -0.079400
      9 C8          8.0640   -0.0000    5.7560 c3        1 1DO     -0.079400
     10 C9          9.5780   -0.0000    5.7820 c3        1 1DO     -0.079400
     11 C10        10.1030   -0.0000    7.2020 c3        1 1DO     -0.079400
     12 C11        11.6170   -0.0000    7.2290 c3        1 1DO     -0.080400
     13 C12        12.1450    0.0000    8.6400 c3        1 1DO     -0.092100
     14 H2S        -0.3010   -0.0010   -0.8460 ho        1 1DO      0.398000
     15 H1C1        1.7940    0.9090   -0.5550 h1        1 1DO      0.019700
     16 H1C2        1.7900   -0.9170   -0.5500 h1        1 1DO      0.019700
     17 H2C1        1.5540    0.9050    1.9590 hc        1 1DO      0.055700
     18 H2C2        1.5520   -0.8990    1.9630 hc        1 1DO      0.055700
     19 H3C1        3.8460   -0.9040    0.9040 hc        1 1DO      0.039700
     20 H3C2        3.8480    0.9020    0.9030 hc        1 1DO      0.039700
     21 H4C1        3.6010    0.9030    3.4100 hc        1 1DO      0.041700
     22 H4C2        3.6010   -0.9020    3.4100 hc        1 1DO      0.041700
     23 H5C1        5.8850   -0.9030    2.3480 hc        1 1DO      0.039700
     24 H5C2        5.8860    0.9030    2.3480 hc        1 1DO      0.039700
     25 H6C1        5.6400    0.9030    4.8550 hc        1 1DO      0.039700
     26 H6C2        5.6400   -0.9030    4.8550 hc        1 1DO      0.039700
     27 H7C1        7.9240    0.9020    3.7930 hc        1 1DO      0.039700
     28 H7C2        7.9240   -0.9030    3.7930 hc        1 1DO      0.039700
     29 H8C1        7.6790    0.9020    6.3000 hc        1 1DO      0.039700
     30 H8C2        7.6790   -0.9030    6.3000 hc        1 1DO      0.039700
     31 H9C1        9.9630    0.9020    5.2390 hc        1 1DO      0.039700
     32 H9C2        9.9630   -0.9030    5.2390 hc        1 1DO      0.039700
     33 H101        9.7180    0.9020    7.7460 hc        1 1DO      0.039700
     34 H102        9.7180   -0.9020    7.7460 hc        1 1DO      0.039700
     35 H111       12.0000   -0.9020    6.6830 hc        1 1DO      0.038700
     36 H112       12.0000    0.9020    6.6830 hc        1 1DO      0.038700
     37 H121       11.7940    0.9050    9.1930 hc        1 1DO      0.032700
     38 H122       13.2620   -0.0000    8.6370 hc        1 1DO      0.032700
     39 H123       11.7940   -0.9050    9.1930 hc        1 1DO      0.032700
@<TRIPOS>BOND
     1    1    2 1   
     2    1   14 1   
     3    2    3 1   
     4    2   15 1   
     5    2   16 1   
     6    3    4 1   
     7    3   17 1   
     8    3   18 1   
     9    4    5 1   
    10    4   19 1   
    11    4   20 1   
    12    5    6 1   
    13    5   21 1   
    14    5   22 1   
    15    6    7 1   
    16    6   23 1   
    17    6   24 1   
    18    7    8 1   
    19    7   25 1   
    20    7   26 1   
    21    8    9 1   
    22    8   27 1   
    23    8   28 1   
    24    9   10 1   
    25    9   29 1   
    26    9   30 1   
    27   10   11 1   
    28   10   31 1   
    29   10   32 1   
    30   11   12 1   
    31   11   33 1   
    32   11   34 1   
    33   12   13 1   
    34   12   35 1   
    35   12   36 1   
    36   13   37 1   
    37   13   38 1   
    38   13   39 1   
@<TRIPOS>SUBSTRUCTURE
     1 1DO         1 TEMP              0 ****  ****    0 ROOT
