@<TRIPOS>MOLECULE
1DO
   39    38     1     0     0
SMALL
bcc


@<TRIPOS>ATOM
      1 O2S         -0.1290     0.4660     0.5020 oh         1 1DO      -0.602800
      2 C1           1.2700     0.5970     0.2980 c3         1 1DO       0.131400
      3 C2           1.9520     0.1000     1.5620 c3         1 1DO      -0.083400
      4 C3           3.4590     0.1820     1.4530 c3         1 1DO      -0.077400
      5 C4           4.0050     1.5790     1.6700 c3         1 1DO      -0.079400
      6 C5           4.0560     1.9570     3.1360 c3         1 1DO      -0.080400
      7 C6           4.6040     3.3560     3.3200 c3         1 1DO      -0.078400
      8 C7           4.6450     3.7740     4.7750 c3         1 1DO      -0.079400
      9 C8           5.7800     3.1200     5.5360 c3         1 1DO      -0.078400
     10 C9           5.8610     3.6030     6.9720 c3         1 1DO      -0.078400
     11 C10          6.9870     4.5860     7.2160 c3         1 1DO      -0.077400
     12 C11          6.7660     5.9140     6.5240 c3         1 1DO      -0.081400
     13 C12          7.8530     6.9010     6.8620 c3         1 1DO      -0.093100
     14 H2S         -0.5550     0.7910    -0.2990 ho         1 1DO       0.398000
     15 H1C1         1.5850    -0.0160    -0.5890 h1         1 1DO       0.019700
     16 H1C2         1.5280     1.6730     0.1020 h1         1 1DO       0.019700
     17 H2C1         1.5870     0.6990     2.4360 hc         1 1DO       0.055700
     18 H2C2         1.6430    -0.9640     1.7390 hc         1 1DO       0.055700
     19 H3C1         3.9130    -0.5120     2.2100 hc         1 1DO       0.040700
     20 H3C2         3.7770    -0.1810     0.4400 hc         1 1DO       0.040700
     21 H4C1         3.3770     2.3230     1.1130 hc         1 1DO       0.038700
     22 H4C2         5.0420     1.6350     1.2430 hc         1 1DO       0.038700
     23 H5C1         3.0270     1.8950     3.5790 hc         1 1DO       0.041700
     24 H5C2         4.6990     1.2230     3.6900 hc         1 1DO       0.041700
     25 H6C1         3.9600     4.0790     2.7520 hc         1 1DO       0.038700
     26 H6C2         5.6350     3.4160     2.8810 hc         1 1DO       0.038700
     27 H7C1         4.7630     4.8900     4.8310 hc         1 1DO       0.040200
     28 H7C2         3.6690     3.5200     5.2660 hc         1 1DO       0.040200
     29 H8C1         6.7490     3.3220     5.0070 hc         1 1DO       0.039700
     30 H8C2         5.6300     2.0080     5.5270 hc         1 1DO       0.039700
     31 H9C1         4.8880     4.0710     7.2750 hc         1 1DO       0.038700
     32 H9C2         6.0200     2.7170     7.6440 hc         1 1DO       0.038700
     33 H101         7.9570     4.1430     6.8690 hc         1 1DO       0.038200
     34 H102         7.0800     4.7600     8.3220 hc         1 1DO       0.038200
     35 H111         6.7350     5.7530     5.4130 hc         1 1DO       0.039700
     36 H112         5.7690     6.3320     6.8240 hc         1 1DO       0.039700
     37 H121         7.6770     7.8690     6.3330 hc         1 1DO       0.031700
     38 H122         8.8520     6.5080     6.5540 hc         1 1DO       0.031700
     39 H123         7.8790     7.1000     7.9610 hc         1 1DO       0.031700
@<TRIPOS>BOND
     1     1     2 1   
     2     1    14 1   
     3     2     3 1   
     4     2    15 1   
     5     2    16 1   
     6     3     4 1   
     7     3    17 1   
     8     3    18 1   
     9     4     5 1   
    10     4    19 1   
    11     4    20 1   
    12     5     6 1   
    13     5    21 1   
    14     5    22 1   
    15     6     7 1   
    16     6    23 1   
    17     6    24 1   
    18     7     8 1   
    19     7    25 1   
    20     7    26 1   
    21     8     9 1   
    22     8    27 1   
    23     8    28 1   
    24     9    10 1   
    25     9    29 1   
    26     9    30 1   
    27    10    11 1   
    28    10    31 1   
    29    10    32 1   
    30    11    12 1   
    31    11    33 1   
    32    11    34 1   
    33    12    13 1   
    34    12    35 1   
    35    12    36 1   
    36    13    37 1   
    37    13    38 1   
    38    13    39 1   
@<TRIPOS>SUBSTRUCTURE
     1 1DO         1 TEMP              0 ****  ****    0 ROOT
