@<TRIPOS>MOLECULE
1DQ
   12    12     1     0     0
SMALL
bcc


@<TRIPOS>ATOM
      1 FAA         0.0500    0.1150    0.3710 f         1 1DQ     -0.231633
      2 CAI         1.3680    0.0080   -0.0070 c3        1 1DQ      0.730200
      3 FAB         2.0340   -0.3510    1.1360 f         1 1DQ     -0.231633
      4 FAC         1.3910   -1.1180   -0.7960 f         1 1DQ     -0.231633
      5 CAH         1.9160    1.2380   -0.6760 cc        1 1DQ     -0.333900
      6 CAE         3.0280    2.0420   -0.3420 cd        1 1DQ      0.382200
      7 NAG         3.1460    3.0760   -1.2590 nd        1 1DQ     -0.668000
      8 CAD         2.1280    2.9130   -2.1410 cc        1 1DQ      0.425400
      9 NAF         1.3500    1.8010   -1.8250 na        1 1DQ     -0.287900
     10 H1          3.7190    1.9180    0.4940 h4        1 1DQ      0.059100
     11 H3          1.9210    3.5580   -3.0030 h5        1 1DQ      0.072100
     12 H4          0.5520    1.4630   -2.2980 hn        1 1DQ      0.316700
@<TRIPOS>BOND
     1    1    2 1   
     2    2    3 1   
     3    2    4 1   
     4    2    5 1   
     5    5    6 2   
     6    5    9 1   
     7    6    7 1   
     8    6   10 1   
     9    7    8 2   
    10    8    9 1   
    11    8   11 1   
    12    9   12 1   
@<TRIPOS>SUBSTRUCTURE
     1 1DQ         1 TEMP              0 ****  ****    0 ROOT
