@<TRIPOS>MOLECULE
1DQ
   12    12     1     0     0
SMALL
bcc


@<TRIPOS>ATOM
      1 FAA         -0.0240     0.0650     0.0280 f          1 1DQ      -0.231633
      2 CAI          1.3460     0.0160     0.0180 c3         1 1DQ       0.730200
      3 FAB          1.7110     0.1190     1.3400 f          1 1DQ      -0.231633
      4 FAC          1.7370     1.2180    -0.5230 f          1 1DQ      -0.231633
      5 CAH          1.9120    -1.1870    -0.6840 cc         1 1DQ      -0.333900
      6 CAE          1.2610    -2.2470    -1.3510 cd         1 1DQ       0.382200
      7 NAG          2.2060    -3.1330    -1.8480 nd         1 1DQ      -0.668000
      8 CAD          3.4150    -2.6290    -1.4940 cc         1 1DQ       0.425400
      9 NAF          3.2850    -1.4400    -0.7810 na         1 1DQ      -0.287900
     10 H1           0.1890    -2.3970    -1.4850 h4         1 1DQ       0.059100
     11 H3           4.3870    -3.0800    -1.7260 h5         1 1DQ       0.072100
     12 H4           4.0020    -0.8740    -0.4070 hn         1 1DQ       0.316700
@<TRIPOS>BOND
     1     1     2 1   
     2     2     3 1   
     3     2     4 1   
     4     2     5 1   
     5     5     6 2   
     6     5     9 1   
     7     6     7 1   
     8     6    10 1   
     9     7     8 2   
    10     8     9 1   
    11     8    11 1   
    12     9    12 1   
@<TRIPOS>SUBSTRUCTURE
     1 1DQ         1 TEMP              0 ****  ****    0 ROOT
