@<TRIPOS>MOLECULE
molecule
   12    12     1     0     0
SMALL
bcc


@<TRIPOS>ATOM
      1 FAA          0.0000     0.0000     0.0000 f          1 1DQ      -0.218633
      2 CAI          1.3990     0.0000     0.0000 c3         1 1DQ       0.710200
      3 FAB          1.8640     0.0000     1.3200 f          1 1DQ      -0.218633
      4 FAC          1.8650    -1.1420    -0.6600 f          1 1DQ      -0.218633
      5 CAH          1.9020     1.2310    -0.7100 cc         1 1DQ      -0.340900
      6 CAE          3.0520     1.8860    -0.4650 cd         1 1DQ       0.386200
      7 NAG          3.1280     2.9240    -1.3110 nd         1 1DQ      -0.696000
      8 CAD          2.0680     2.9360    -2.0720 cc         1 1DQ       0.430400
      9 NAF          1.2780     1.8940    -1.7330 na         1 1DQ      -0.274900
     10 H1           3.7880     1.6210     0.2850 h4         1 1DQ       0.056100
     11 H3           1.8580     3.6600    -2.8500 h5         1 1DQ       0.074100
     12 H4           0.4000     1.6540    -2.1490 hn         1 1DQ       0.311700
@<TRIPOS>BOND
     1     3     2 1
     2     9     8 1
     3     9     5 1
     4     8     7 2
     5     5     2 1
     6     5     6 2
     7     2     4 1
     8     2     1 1
     9     7     6 1
    10     6    10 1
    11     8    11 1
    12     9    12 1
@<TRIPOS>SUBSTRUCTURE
     1 1DQ         1 TEMP              0 ****  ****    0 ROOT
