@<TRIPOS>MOLECULE
molecule
   28    31     1     0     0
SMALL
bcc


@<TRIPOS>ATOM
      1 CAA          0.0000     0.0000     0.0000 ca         1 1DR      -0.001200
      2 CAB          1.3910     0.0000     0.0000 ca         1 1DR      -0.157000
      3 CAC          2.0810     0.0000     1.1930 ca         1 1DR      -0.097000
      4 CAD          1.4010     0.0000     2.4020 ca         1 1DR      -0.160000
      5 CAE          0.0230     0.0000     2.4230 ca         1 1DR      -0.072000
      6 CAF         -0.6860     0.0010     1.2240 cp         1 1DR      -0.082000
      7 CAG         -2.1250     0.0020     0.8970 cp         1 1DR      -0.082000
      8 CAH         -2.2140     0.0010    -0.4990 ca         1 1DR       0.003800
      9 NAI         -0.9320     0.0050    -1.0210 na         1 1DR      -0.190300
     10 CAJ         -3.2830     0.0020     1.6820 ca         1 1DR      -0.081000
     11 CAK         -4.5110     0.0020     1.0940 ca         1 1DR      -0.126000
     12 CAL         -4.6230     0.0020    -0.2990 ca         1 1DR      -0.036800
     13 CAM         -3.4770     0.0020    -1.1040 ca         1 1DR      -0.084200
     14 CAN         -5.7680     0.0010    -1.2300 cc         1 1DR      -0.283400
     15 CAO         -5.2320    -0.0000    -2.5000 cd         1 1DR      -0.018100
     16 NAP         -3.8870     0.0010    -2.4220 na         1 1DR      -0.155400
     17 CAQ         -7.1440    -0.0000    -0.8870 c          1 1DR       0.615100
     18 OAR         -7.9870    -0.0010    -1.7600 o          1 1DR      -0.561100
     19 HAB          1.9330    -0.0000    -0.9380 ha         1 1DR       0.127000
     20 HAC          3.1640    -0.0000     1.1870 ha         1 1DR       0.132000
     21 HAD          1.9550    -0.0000     3.3330 ha         1 1DR       0.132000
     22 HAE         -0.5070     0.0000     3.3680 ha         1 1DR       0.133000
     23 HNAI        -0.7110     0.0110    -1.9970 hn         1 1DR       0.292700
     24 HAJ         -3.2020     0.0020     2.7620 ha         1 1DR       0.135000
     25 HAK         -5.4040     0.0020     1.7070 ha         1 1DR       0.135000
     26 HAO         -5.8040    -0.0010    -3.4200 h4         1 1DR       0.188000
     27 HNAP        -3.2710     0.0010    -3.2100 hn         1 1DR       0.295700
     28 HAQ         -7.4420     0.0250     0.1540 h4         1 1DR      -0.002800
@<TRIPOS>BOND
     1     1     2 ar  
     2     1     6 ar  
     3     1     9 1   
     4     2     3 ar  
     5     3     4 ar  
     6     4     5 ar  
     7     5     6 ar  
     8     6     7 1   
     9     7     8 ar  
    10     7    10 ar  
    11     8     9 1   
    12     8    13 ar  
    13    10    11 ar  
    14    11    12 ar  
    15    12    13 ar  
    16    12    14 1   
    17    13    16 1   
    18    14    15 2   
    19    14    17 1   
    20    15    16 1   
    21    17    18 2   
    22     2    19 1   
    23     3    20 1   
    24     4    21 1   
    25     5    22 1   
    26     9    23 1   
    27    10    24 1   
    28    11    25 1   
    29    15    26 1   
    30    16    27 1   
    31    17    28 1   
@<TRIPOS>SUBSTRUCTURE
     1 1DR         1 TEMP              0 ****  ****    0 ROOT
