@<TRIPOS>MOLECULE
1DR
   28    31     1     0     0
SMALL
bcc


@<TRIPOS>ATOM
      1 CAA          0.0620     0.0210     0.0240 ca         1 1DR      -0.040200
      2 CAB          1.4580     0.0280     0.0150 ca         1 1DR      -0.145000
      3 CAC          2.1190     0.0280     1.2440 ca         1 1DR      -0.108000
      4 CAD          1.4170     0.0240     2.4520 ca         1 1DR      -0.152000
      5 CAE          0.0210     0.0160     2.4760 ca         1 1DR      -0.081000
      6 CAF         -0.6670     0.0080     1.2710 cp         1 1DR      -0.066000
      7 CAG         -2.0800    -0.0130     0.9270 cp         1 1DR      -0.059000
      8 CAH         -2.1380    -0.0060    -0.5090 ca         1 1DR      -0.046200
      9 NAI         -0.8410     0.1000    -1.0700 na         1 1DR      -0.154300
     10 CAJ         -3.2410    -0.0360     1.7060 ca         1 1DR      -0.097000
     11 CAK         -4.4890    -0.0590     1.0980 ca         1 1DR      -0.104000
     12 CAL         -4.5810    -0.0480    -0.2970 ca         1 1DR      -0.026800
     13 CAM         -3.3950    -0.0130    -1.1220 ca         1 1DR      -0.074200
     14 CAN         -5.7040    -0.0570    -1.2150 cc         1 1DR      -0.254400
     15 CAO         -5.1750    -0.0190    -2.5140 cd         1 1DR      -0.045100
     16 NAP         -3.7880    -0.0160    -2.4680 na         1 1DR      -0.174400
     17 CAQ         -7.1110    -0.0970    -0.8830 c          1 1DR       0.604100
     18 OAR         -7.5590    -0.1250     0.2680 o          1 1DR      -0.541100
     19 HAB          2.0230     0.0380    -0.9260 ha         1 1DR       0.136000
     20 HAC          3.2190     0.0320     1.2590 ha         1 1DR       0.132000
     21 HAD          1.9740     0.0290     3.4010 ha         1 1DR       0.133000
     22 HAE         -0.5250     0.0170     3.4300 ha         1 1DR       0.138000
     23 HNAI        -0.6310    -0.4100    -1.8960 hn         1 1DR       0.264700
     24 HAJ         -3.1560    -0.0360     2.8020 ha         1 1DR       0.139000
     25 HAK         -5.4160    -0.0840     1.6930 ha         1 1DR       0.163000
     26 HAO         -5.7040    -0.0080    -3.4700 h4         1 1DR       0.170000
     27 HNAP        -3.1840     0.1260    -3.2340 hn         1 1DR       0.302700
     28 HAQ         -7.7970    -0.1000    -1.7630 h4         1 1DR      -0.013800
@<TRIPOS>BOND
     1     1     2 ar  
     2     1     6 ar  
     3     1     9 1   
     4     2     3 ar  
     5     2    19 1   
     6     3     4 ar  
     7     3    20 1   
     8     4     5 ar  
     9     4    21 1   
    10     5     6 ar  
    11     5    22 1   
    12     6     7 1   
    13     7     8 ar  
    14     7    10 ar  
    15     8     9 1   
    16     8    13 ar  
    17     9    23 1   
    18    10    11 ar  
    19    10    24 1   
    20    11    12 ar  
    21    11    25 1   
    22    12    13 ar  
    23    12    14 1   
    24    13    16 1   
    25    14    15 2   
    26    14    17 1   
    27    15    16 1   
    28    15    26 1   
    29    16    27 1   
    30    17    18 2   
    31    17    28 1   
@<TRIPOS>SUBSTRUCTURE
     1 1DR         1 TEMP              0 ****  ****    0 ROOT
