@<TRIPOS>MOLECULE
1DR
   28    31     1     0     0
SMALL
bcc


@<TRIPOS>ATOM
      1 CAA         0.0110   -0.0200   -0.0110 ca        1 1DR     -0.038200
      2 CAB         1.4070   -0.0120   -0.0290 ca        1 1DR     -0.145000
      3 CAC         2.0750   -0.0030    1.1940 ca        1 1DR     -0.107000
      4 CAD         1.3820   -0.0040    2.4080 ca        1 1DR     -0.151000
      5 CAE        -0.0130   -0.0110    2.4410 ca        1 1DR     -0.082000
      6 CAF        -0.7110   -0.0120    1.2420 cp        1 1DR     -0.066000
      7 CAG        -2.1260   -0.0070    0.9070 cp        1 1DR     -0.064000
      8 CAH        -2.1940   -0.0160   -0.5300 ca        1 1DR     -0.036200
      9 NAI        -0.9000   -0.1090   -1.0970 na        1 1DR     -0.157300
     10 CAJ        -3.2820    0.0050    1.6900 ca        1 1DR     -0.089000
     11 CAK        -4.5330    0.0160    1.0890 ca        1 1DR     -0.122000
     12 CAL        -4.6380    0.0030   -0.3050 ca        1 1DR     -0.032800
     13 CAM        -3.4540   -0.0210   -1.1350 ca        1 1DR     -0.074200
     14 CAN        -5.7620    0.0020   -1.2210 cc        1 1DR     -0.267400
     15 CAO        -5.2360   -0.0300   -2.5230 cd        1 1DR     -0.014100
     16 NAP        -3.8510   -0.0250   -2.4810 na        1 1DR     -0.178400
     17 CAQ        -7.1610    0.0270   -0.8620 c         1 1DR      0.605100
     18 OAR        -8.0850    0.0320   -1.6830 o         1 1DR     -0.556100
     19 HAB         1.9640   -0.0180   -0.9750 ha        1 1DR      0.137000
     20 HAC         3.1760    0.0040    1.2020 ha        1 1DR      0.133000
     21 HAD         1.9460   -0.0010    3.3520 ha        1 1DR      0.134000
     22 HAE        -0.5530   -0.0150    3.3990 ha        1 1DR      0.138000
     23 HNAI       -0.6980    0.3830   -1.9350 hn        1 1DR      0.268700
     24 HAJ        -3.1910    0.0070    2.7870 ha        1 1DR      0.139000
     25 HAK        -5.4460    0.0310    1.7020 ha        1 1DR      0.138000
     26 HAO        -5.7820   -0.0440   -3.4720 h4        1 1DR      0.185000
     27 HNAP       -3.2450   -0.1450   -3.2490 hn        1 1DR      0.303700
     28 HAQ        -7.3630    0.0420    0.2340 h4        1 1DR     -0.001800
@<TRIPOS>BOND
     1    1    2 ar  
     2    1    6 ar  
     3    1    9 1   
     4    2    3 ar  
     5    2   19 1   
     6    3    4 ar  
     7    3   20 1   
     8    4    5 ar  
     9    4   21 1   
    10    5    6 ar  
    11    5   22 1   
    12    6    7 1   
    13    7    8 ar  
    14    7   10 ar  
    15    8    9 1   
    16    8   13 ar  
    17    9   23 1   
    18   10   11 ar  
    19   10   24 1   
    20   11   12 ar  
    21   11   25 1   
    22   12   13 ar  
    23   12   14 1   
    24   13   16 1   
    25   14   15 2   
    26   14   17 1   
    27   15   16 1   
    28   15   26 1   
    29   16   27 1   
    30   17   18 2   
    31   17   28 1   
@<TRIPOS>SUBSTRUCTURE
     1 1DR         1 TEMP              0 ****  ****    0 ROOT
