@<TRIPOS>MOLECULE
molecule
   74    75     1     0     0
SMALL
bcc


@<TRIPOS>ATOM
      1 O6           0.0000     0.0000     0.0000 oh         1 1DS      -0.590800
      2 C6           1.4290     0.0000     0.0000 c3         1 1DS       0.151400
      3 C5           1.9400     0.0000     1.4420 c3         1 1DS       0.162100
      4 C4           3.4640     0.1360     1.4440 c3         1 1DS       0.097100
      5 C3           3.9730     0.0740     2.8880 c3         1 1DS       0.111100
      6 C2           3.5040    -1.2370     3.5270 c3         1 1DS       0.120100
      7 C1           1.9780    -1.3200     3.4450 c3         1 1DS       0.346900
      8 O5           1.5710    -1.2260     2.0780 os         1 1DS      -0.407600
      9 O1           1.5380    -2.5650     3.9880 os         1 1DS      -0.368600
     10 C2'          0.1250    -2.6470     4.1850 c3         1 1DS       0.339600
     11 C3'         -0.3100    -1.6500     5.2780 c3         1 1DS       0.076100
     12 C4'         -1.3370    -0.7350     4.5680 c3         1 1DS       0.087100
     13 C5'         -1.7770    -1.6090     3.3660 c3         1 1DS       0.121100
     14 O2'         -0.5590    -2.2840     2.9740 os         1 1DS      -0.352600
     15 C6'         -2.3020    -0.7330     2.2280 c3         1 1DS       0.152400
     16 O6'         -2.8070    -1.5660     1.1820 oh         1 1DS      -0.593800
     17 O4'         -0.7190     0.4740     4.1220 oh         1 1DS      -0.562800
     18 O3'          0.8090    -0.8890     5.7340 oh         1 1DS      -0.552800
     19 C1'         -0.2620    -4.0700     4.5940 c3         1 1DS       0.154400
     20 O1'          0.2370    -5.0100     3.6070 os         1 1DS      -0.393900
     21 O2           3.9120    -1.2730     4.8960 oh         1 1DS      -0.578800
     22 O3           3.4510     1.1800     3.6250 oh         1 1DS      -0.574800
     23 O4           3.8330     1.3860     0.8610 oh         1 1DS      -0.594800
     24 C1N         -0.1050    -6.2990     3.7650 c          1 1DS       0.632100
     25 C2N          0.4660    -7.3480     2.8470 c3         1 1DS      -0.125400
     26 O1N         -0.8730    -6.6160     4.6420 o          1 1DS      -0.565000
     27 C3N         -0.1770    -8.7010     3.1560 c3         1 1DS      -0.073400
     28 C4N          0.4900    -9.7880     2.3100 c3         1 1DS      -0.083400
     29 C5N         -0.1520   -11.1410     2.6200 c3         1 1DS      -0.080400
     30 H1          -0.3140     0.2670    -0.8480 ho         1 1DS       0.394000
     31 H2           1.7900    -0.8840    -0.5110 h1         1 1DS       0.030700
     32 H3           1.7900     0.8840    -0.5110 h1         1 1DS       0.030700
     33 H4           1.5040     0.8310     1.9840 h1         1 1DS       0.083700
     34 H5           3.8980    -0.6770     0.8750 h1         1 1DS       0.042700
     35 H6           5.0550     0.1100     2.8900 h1         1 1DS       0.031700
     36 H7           3.9390    -2.0730     2.9930 h1         1 1DS       0.048700
     37 H8           1.5440    -0.5010     4.0060 h2         1 1DS       0.106700
     38 H9          -0.7790    -2.1750     6.1010 h1         1 1DS       0.046700
     39 H10         -2.1780    -0.5280     5.2190 h1         1 1DS       0.040700
     40 H11         -2.5240    -2.3290     3.6770 h1         1 1DS       0.051700
     41 H12         -1.4970    -0.1190     1.8440 h1         1 1DS       0.052700
     42 H13         -3.0970    -0.0970     2.5990 h1         1 1DS       0.052700
     43 H14         -3.6240    -1.2150     0.8670 ho         1 1DS       0.391000
     44 H15         -1.0890     1.2060     4.5860 ho         1 1DS       0.400000
     45 H16          0.7440    -0.7610     6.6650 ho         1 1DS       0.398000
     46 H17          0.1710    -4.2980     5.5610 h1         1 1DS       0.057700
     47 H18         -1.3410    -4.1480     4.6540 h1         1 1DS       0.057700
     48 H19          4.6790    -1.8150     4.9820 ho         1 1DS       0.395000
     49 H20          4.1600     1.7340     3.9060 ho         1 1DS       0.404000
     50 H21          4.6290     1.2800     0.3670 ho         1 1DS       0.398000
     51 H22          0.2610    -7.0770     1.8180 hc         1 1DS       0.073700
     52 H23          1.5370    -7.4140     2.9960 hc         1 1DS       0.073700
     53 H24         -1.2340    -8.6600     2.9240 hc         1 1DS       0.057700
     54 H25         -0.0460    -8.9300     4.2070 hc         1 1DS       0.057700
     55 H26          0.3590    -9.5590     1.2590 hc         1 1DS       0.041200
     56 H27          1.5470    -9.8290     2.5420 hc         1 1DS       0.041200
     57 H28         -0.0210   -11.3710     3.6710 hc         1 1DS       0.043700
     58 H29         -1.2100   -11.1000     2.3890 hc         1 1DS       0.043700
     59 C7           0.5130   -12.2270     1.7730 c3         1 1DS      -0.082400
     60 C8          -0.1290   -13.5820     2.0830 c3         1 1DS      -0.082400
     61 C9           0.5370   -14.6680     1.2370 c3         1 1DS      -0.081400
     62 C10         -0.1050   -16.0210     1.5470 c3         1 1DS      -0.084400
     63 C11          0.5610   -17.1070     0.7010 c3         1 1DS      -0.092100
     64 H30          1.5710   -12.2680     2.0040 hc         1 1DS       0.040700
     65 H31          0.3820   -11.9970     0.7230 hc         1 1DS       0.040700
     66 H32          0.0010   -13.8110     3.1340 hc         1 1DS       0.041700
     67 H33         -1.1870   -13.5410     1.8520 hc         1 1DS       0.041700
     68 H34          1.5950   -14.7090     1.4690 hc         1 1DS       0.040700
     69 H35          0.4070   -14.4380     0.1860 hc         1 1DS       0.040700
     70 H36         -1.1630   -15.9800     1.3150 hc         1 1DS       0.039700
     71 H37          0.0250   -16.2510     2.5970 hc         1 1DS       0.039700
     72 H38          1.6180   -17.1490     0.9340 hc         1 1DS       0.032367
     73 H39          0.1040   -18.0650     0.9190 hc         1 1DS       0.032367
     74 H40          0.4310   -16.8770    -0.3500 hc         1 1DS       0.032367
@<TRIPOS>BOND
     1     1     2 1   
     2     2     3 1   
     3    21     6 1   
     4     3     8 1   
     5     3     4 1   
     6     8     7 1   
     7    23     4 1   
     8     6     7 1   
     9     6     5 1   
    10     4     5 1   
    11     7     9 1   
    12    22     5 1   
    13     9    10 1   
    14    14    10 1   
    15    14    13 1   
    16    10    19 1   
    17    10    11 1   
    18    19    20 1   
    19    15    13 1   
    20    15    16 1   
    21    13    12 1   
    22    18    11 1   
    23    11    12 1   
    24    20    24 1   
    25    12    17 1   
    26    26    24 2   
    27    24    25 1   
    28    25    27 1   
    29    27    28 1   
    30    28    29 1   
    31     1    30 1   
    32     2    31 1   
    33     2    32 1   
    34     3    33 1   
    35     4    34 1   
    36     5    35 1   
    37     6    36 1   
    38     7    37 1   
    39    11    38 1   
    40    12    39 1   
    41    13    40 1   
    42    15    41 1   
    43    15    42 1   
    44    16    43 1   
    45    17    44 1   
    46    18    45 1   
    47    19    46 1   
    48    19    47 1   
    49    21    48 1   
    50    22    49 1   
    51    23    50 1   
    52    25    51 1   
    53    25    52 1   
    54    27    53 1   
    55    27    54 1   
    56    28    55 1   
    57    28    56 1   
    58    29    57 1   
    59    29    58 1   
    60    29    59 1   
    61    59    60 1   
    62    60    61 1   
    63    61    62 1   
    64    62    63 1   
    65    59    64 1   
    66    59    65 1   
    67    60    66 1   
    68    60    67 1   
    69    61    68 1   
    70    61    69 1   
    71    62    70 1   
    72    62    71 1   
    73    63    72 1   
    74    63    73 1   
    75    63    74 1   
@<TRIPOS>SUBSTRUCTURE
     1 1DS         1 TEMP              0 ****  ****    0 ROOT
